
OS:Version,
  {20f65da5-9cb5-4fef-9a71-76255a70bb25}, !- Handle
  2.5.1;                                  !- Version Identifier

OS:Site,
  {3a1edcec-3cbf-4f45-88d2-3a278ae9e394}, !- Handle
  Oak Ridge_TN_USA Design_Conditions,     !- Name
  35.96,                                  !- Latitude {deg}
  -84.29,                                 !- Longitude {deg}
  -5,                                     !- Time Zone {hr}
  334,                                    !- Elevation {m}
  Suburbs;                                !- Terrain

OS:SimulationControl,
  {f3582543-78c3-4687-b9b6-6f5e7996c5ef}, !- Handle
  Yes,                                    !- Do Zone Sizing Calculation
  Yes,                                    !- Do System Sizing Calculation
  No,                                     !- Do Plant Sizing Calculation
  No,                                     !- Run Simulation for Sizing Periods
  Yes,                                    !- Run Simulation for Weather File Run Periods
  0.04,                                   !- Loads Convergence Tolerance Value
  0.4,                                    !- Temperature Convergence Tolerance Value {deltaC}
  FullInteriorAndExterior,                !- Solar Distribution
  25,                                     !- Maximum Number of Warmup Days
  6;                                      !- Minimum Number of Warmup Days

OS:Curve:Cubic,
  {e618f795-b67f-45c1-bcd6-cacd3e49cc59}, !- Handle
  RoofTop DX Coil EIR-FF,                 !- Name
  1.0079484,                              !- Coefficient1 Constant
  0.34544129,                             !- Coefficient2 x
  -0.6922891,                             !- Coefficient3 x**2
  0.33889943,                             !- Coefficient4 x**3
  0.5,                                    !- Minimum Value of x
  1.5;                                    !- Maximum Value of x

OS:Surface,
  {107d3e82-ae1f-42f7-a2f8-4146f72ab9d5}, !- Handle
  Surface 47 Reversed,                    !- Name
  Wall,                                   !- Surface Type
  {fed622dc-87b6-42cd-afeb-209dd2b17d6c}, !- Construction Name
  {db805cf9-601d-4fc7-8722-b98c24e9488d}, !- Space Name
  Surface,                                !- Outside Boundary Condition
  {35d5de27-9631-4c01-8ae0-ece98e06b634}, !- Outside Boundary Condition Object
  NoSun,                                  !- Sun Exposure
  NoWind,                                 !- Wind Exposure
  ,                                       !- View Factor to Ground
  ,                                       !- Number of Vertices
  4.0132, 7.3152, 2.7432,                 !- X,Y,Z Vertex 1 {m}
  4.0132, 7.3152, 0,                      !- X,Y,Z Vertex 2 {m}
  0, 7.3152, 0,                           !- X,Y,Z Vertex 3 {m}
  0, 7.3152, 2.7432;                      !- X,Y,Z Vertex 4 {m}

OS:Construction,
  {fed622dc-87b6-42cd-afeb-209dd2b17d6c}, !- Handle
  INT_WALL,                               !- Name
  {f29a9687-d39c-4384-9eed-64bbcde79e58}, !- Surface Rendering Name
  {a5eebc44-a28c-4280-8fc8-77d9d5099dc8}, !- Layer 1
  {a5eebc44-a28c-4280-8fc8-77d9d5099dc8}; !- Layer 2

OS:Material,
  {a5eebc44-a28c-4280-8fc8-77d9d5099dc8}, !- Handle
  GP01 1/2 GYPSUM,                        !- Name
  Smooth,                                 !- Roughness
  0.0127,                                 !- Thickness {m}
  0.16,                                   !- Conductivity {W/m-K}
  800,                                    !- Density {kg/m3}
  1090,                                   !- Specific Heat {J/kg-K}
  0.9,                                    !- Thermal Absorptance
  0.7,                                    !- Solar Absorptance
  0.5;                                    !- Visible Absorptance

OS:ThermalZone,
  {9d56d9ef-1708-4a6d-8292-506e33031c83}, !- Handle
  Room 105,                               !- Name
  ,                                       !- Multiplier
  ,                                       !- Ceiling Height {m}
  ,                                       !- Volume {m3}
  ,                                       !- Floor Area {m2}
  ,                                       !- Zone Inside Convection Algorithm
  ,                                       !- Zone Outside Convection Algorithm
  ,                                       !- Zone Conditioning Equipment List Name
  {78447e71-70fb-4231-8baf-dff54e3db56a}, !- Zone Air Inlet Port List
  {a349871b-a1a5-41ef-9482-7b56b446a353}, !- Zone Air Exhaust Port List
  {3d9f931f-6d1a-4ced-9752-230cc550c062}, !- Zone Air Node Name
  {4f585805-abf9-48c7-90b8-4ee7f6b711aa}, !- Zone Return Air Node Name
  ,                                       !- Primary Daylighting Control Name
  ,                                       !- Fraction of Zone Controlled by Primary Daylighting Control
  ,                                       !- Secondary Daylighting Control Name
  ,                                       !- Fraction of Zone Controlled by Secondary Daylighting Control
  ,                                       !- Illuminance Map Name
  {200d6294-fda2-4b5e-805e-8996752fcfe1}, !- Group Rendering Name
  {5f458315-c3ee-48fe-8f5a-68b22a8f1f3e}, !- Thermostat Name
  No;                                     !- Use Ideal Air Loads

OS:Node,
  {f2dc9811-d08e-4b7f-bfb8-be16773bfe2c}, !- Handle
  {0628a441-dd58-4747-b49f-b343da599f6d}, !- Name
  {3d9f931f-6d1a-4ced-9752-230cc550c062}, !- Inlet Port
  ;                                       !- Outlet Port

OS:Connection,
  {3d9f931f-6d1a-4ced-9752-230cc550c062}, !- Handle
  {062cff3f-f4df-4915-bff5-f93db38c1331}, !- Name
  {9d56d9ef-1708-4a6d-8292-506e33031c83}, !- Source Object
  11,                                     !- Outlet Port
  {f2dc9811-d08e-4b7f-bfb8-be16773bfe2c}, !- Target Object
  2;                                      !- Inlet Port

OS:PortList,
  {78447e71-70fb-4231-8baf-dff54e3db56a}, !- Handle
  {1472dbc5-0218-44e2-bab6-9cda4cd44c46}, !- Name
  {9d56d9ef-1708-4a6d-8292-506e33031c83}, !- HVAC Component
  {28618989-7502-4962-b165-f744e97b19be}; !- Port 1

OS:PortList,
  {a349871b-a1a5-41ef-9482-7b56b446a353}, !- Handle
  {1ac96222-01f3-4d98-be51-84d441a0c3f0}, !- Name
  {9d56d9ef-1708-4a6d-8292-506e33031c83}; !- HVAC Component

OS:Sizing:Zone,
  {12194a1c-4bbf-4353-9ce0-1779039bb976}, !- Handle
  {9d56d9ef-1708-4a6d-8292-506e33031c83}, !- Zone or ZoneList Name
  SupplyAirTemperature,                   !- Zone Cooling Design Supply Air Temperature Input Method
  14.4444444444444,                       !- Zone Cooling Design Supply Air Temperature {C}
  8.33333333333333,                       !- Zone Cooling Design Supply Air Temperature Difference {deltaC}
  SupplyAirTemperature,                   !- Zone Heating Design Supply Air Temperature Input Method
  48.8888888888889,                       !- Zone Heating Design Supply Air Temperature {C}
  30,                                     !- Zone Heating Design Supply Air Temperature Difference {deltaC}
  0.008,                                  !- Zone Cooling Design Supply Air Humidity Ratio {kg-H2O/kg-air}
  0.008,                                  !- Zone Heating Design Supply Air Humidity Ratio {kg-H2O/kg-air}
  ,                                       !- Zone Heating Sizing Factor
  ,                                       !- Zone Cooling Sizing Factor
  Flow/Zone,                              !- Cooling Design Air Flow Method
  0.283168465920001,                      !- Cooling Design Air Flow Rate {m3/s}
  ,                                       !- Cooling Minimum Air Flow per Zone Floor Area {m3/s-m2}
  ,                                       !- Cooling Minimum Air Flow {m3/s}
  0,                                      !- Cooling Minimum Air Flow Fraction
  DesignDay,                              !- Heating Design Air Flow Method
  0.174620553984,                         !- Heating Design Air Flow Rate {m3/s}
  ,                                       !- Heating Maximum Air Flow per Zone Floor Area {m3/s-m2}
  ,                                       !- Heating Maximum Air Flow {m3/s}
  0,                                      !- Heating Maximum Air Flow Fraction
  1,                                      !- Design Zone Air Distribution Effectiveness in Cooling Mode
  1,                                      !- Design Zone Air Distribution Effectiveness in Heating Mode
  No,                                     !- Account for Dedicated Outdoor Air System
  NeutralSupplyAir,                       !- Dedicated Outdoor Air System Control Strategy
  autosize,                               !- Dedicated Outdoor Air Low Setpoint Temperature for Design {C}
  autosize;                               !- Dedicated Outdoor Air High Setpoint Temperature for Design {C}

OS:ZoneHVAC:EquipmentList,
  {0c1de6b9-f5e3-4574-9c64-ec1ccdef6988}, !- Handle
  {0ff930d0-9456-4482-805b-d71c26e1f105}, !- Name
  {9d56d9ef-1708-4a6d-8292-506e33031c83}, !- Thermal Zone
  {15656f7e-e90d-4006-a15f-5aae9b5f05fe}, !- Zone Equipment 1
  1,                                      !- Zone Equipment Cooling Sequence 1
  1;                                      !- Zone Equipment Heating or No-Load Sequence 1

OS:Space,
  {db805cf9-601d-4fc7-8722-b98c24e9488d}, !- Handle
  Room 105,                               !- Name
  ,                                       !- Space Type Name
  ,                                       !- Default Construction Set Name
  ,                                       !- Default Schedule Set Name
  -0,                                     !- Direction of Relative North {deg}
  0,                                      !- X Origin {m}
  0,                                      !- Y Origin {m}
  0,                                      !- Z Origin {m}
  {e019fe1d-e8a1-4d2e-b5ac-961c4fa27627}, !- Building Story Name
  {9d56d9ef-1708-4a6d-8292-506e33031c83}, !- Thermal Zone Name
  ,                                       !- Part of Total Floor Area
  {6007c2a9-14cd-4f48-bacd-123f79498b3b}, !- Design Specification Outdoor Air Object Name
  ;                                       !- Building Unit Name

OS:ThermostatSetpoint:DualSetpoint,
  {5f458315-c3ee-48fe-8f5a-68b22a8f1f3e}, !- Handle
  Thermostat Dual SP Control,             !- Name
  {9bd9b41e-573a-499b-93ab-f18203441945}, !- Heating Setpoint Temperature Schedule Name
  {cd3d076a-24a3-44be-8410-80a5906afddb}; !- Cooling Setpoint Temperature Schedule Name

OS:ScheduleTypeLimits,
  {dbf3aaa7-483c-4d06-9f4e-5b6321805096}, !- Handle
  Temperature,                            !- Name
  -60,                                    !- Lower Limit Value
  200,                                    !- Upper Limit Value
  CONTINUOUS,                             !- Numeric Type
  temperature;                            !- Unit Type

OS:ScheduleTypeLimits,
  {8fad75d8-a002-4cca-b9ac-863d8f49397b}, !- Handle
  Fraction,                               !- Name
  0,                                      !- Lower Limit Value
  1,                                      !- Upper Limit Value
  CONTINUOUS;                             !- Numeric Type

OS:Curve:Biquadratic,
  {55cb1bdd-d54f-44ff-bc01-a6cfba25967b}, !- Handle
  RoofTop DX Coil Low EIR-FT,             !- Name
  0.774645,                               !- Coefficient1 Constant
  -0.0343731,                             !- Coefficient2 x
  0.000783173,                            !- Coefficient3 x**2
  0.0146596,                              !- Coefficient4 y
  0.000488851,                            !- Coefficient5 y**2
  -0.000752036,                           !- Coefficient6 x*y
  12.77778,                               !- Minimum Value of x
  23.88889,                               !- Maximum Value of x
  23.88889,                               !- Minimum Value of y
  46.11111;                               !- Maximum Value of y

OS:ThermalZone,
  {7c4211d2-b1cf-46f6-92bb-ef23fdb7bac0}, !- Handle
  Room 206,                               !- Name
  ,                                       !- Multiplier
  ,                                       !- Ceiling Height {m}
  ,                                       !- Volume {m3}
  ,                                       !- Floor Area {m2}
  ,                                       !- Zone Inside Convection Algorithm
  ,                                       !- Zone Outside Convection Algorithm
  ,                                       !- Zone Conditioning Equipment List Name
  {fcd0eaad-95c2-4aaf-bf08-3b13ea2a27fb}, !- Zone Air Inlet Port List
  {2fdb4586-6622-45c0-91b4-43ca0c2111a9}, !- Zone Air Exhaust Port List
  {629cc642-b126-486b-9e9e-afb7866e8431}, !- Zone Air Node Name
  {725a8db5-f0e7-4219-99fa-2d092c30a0fe}, !- Zone Return Air Node Name
  ,                                       !- Primary Daylighting Control Name
  ,                                       !- Fraction of Zone Controlled by Primary Daylighting Control
  ,                                       !- Secondary Daylighting Control Name
  ,                                       !- Fraction of Zone Controlled by Secondary Daylighting Control
  ,                                       !- Illuminance Map Name
  {535f2083-2407-4665-9009-404a48cdc3cd}, !- Group Rendering Name
  {588351be-fe14-49fe-a234-284f595fc9fc}, !- Thermostat Name
  No;                                     !- Use Ideal Air Loads

OS:Node,
  {85e71c09-d5f7-4af2-ac49-78112367c41b}, !- Handle
  {76064095-69fd-4710-a706-3caca6b1930a}, !- Name
  {629cc642-b126-486b-9e9e-afb7866e8431}, !- Inlet Port
  ;                                       !- Outlet Port

OS:Connection,
  {629cc642-b126-486b-9e9e-afb7866e8431}, !- Handle
  {0b935fbe-e598-42f0-98c7-7e62a5f1e91e}, !- Name
  {7c4211d2-b1cf-46f6-92bb-ef23fdb7bac0}, !- Source Object
  11,                                     !- Outlet Port
  {85e71c09-d5f7-4af2-ac49-78112367c41b}, !- Target Object
  2;                                      !- Inlet Port

OS:PortList,
  {fcd0eaad-95c2-4aaf-bf08-3b13ea2a27fb}, !- Handle
  {9364a082-1a60-4fc7-9c57-ac10a56a1948}, !- Name
  {7c4211d2-b1cf-46f6-92bb-ef23fdb7bac0}, !- HVAC Component
  {670436d6-3a84-4f9c-991a-4d24e00c8c67}; !- Port 1

OS:PortList,
  {2fdb4586-6622-45c0-91b4-43ca0c2111a9}, !- Handle
  {63aceef3-6099-46c9-8e9a-e7140a93dd07}, !- Name
  {7c4211d2-b1cf-46f6-92bb-ef23fdb7bac0}; !- HVAC Component

OS:Sizing:Zone,
  {f6334ddd-3726-4db4-8a09-a332d0788b3d}, !- Handle
  {7c4211d2-b1cf-46f6-92bb-ef23fdb7bac0}, !- Zone or ZoneList Name
  SupplyAirTemperature,                   !- Zone Cooling Design Supply Air Temperature Input Method
  14.4444444444444,                       !- Zone Cooling Design Supply Air Temperature {C}
  8.33333333333333,                       !- Zone Cooling Design Supply Air Temperature Difference {deltaC}
  SupplyAirTemperature,                   !- Zone Heating Design Supply Air Temperature Input Method
  48.8888888888889,                       !- Zone Heating Design Supply Air Temperature {C}
  30,                                     !- Zone Heating Design Supply Air Temperature Difference {deltaC}
  0.008,                                  !- Zone Cooling Design Supply Air Humidity Ratio {kg-H2O/kg-air}
  0.008,                                  !- Zone Heating Design Supply Air Humidity Ratio {kg-H2O/kg-air}
  ,                                       !- Zone Heating Sizing Factor
  ,                                       !- Zone Cooling Sizing Factor
  Flow/Zone,                              !- Cooling Design Air Flow Method
  0.297326889216001,                      !- Cooling Design Air Flow Rate {m3/s}
  ,                                       !- Cooling Minimum Air Flow per Zone Floor Area {m3/s-m2}
  ,                                       !- Cooling Minimum Air Flow {m3/s}
  0,                                      !- Cooling Minimum Air Flow Fraction
  DesignDay,                              !- Heating Design Air Flow Method
  0.174620553984,                         !- Heating Design Air Flow Rate {m3/s}
  ,                                       !- Heating Maximum Air Flow per Zone Floor Area {m3/s-m2}
  ,                                       !- Heating Maximum Air Flow {m3/s}
  0,                                      !- Heating Maximum Air Flow Fraction
  1,                                      !- Design Zone Air Distribution Effectiveness in Cooling Mode
  1,                                      !- Design Zone Air Distribution Effectiveness in Heating Mode
  No,                                     !- Account for Dedicated Outdoor Air System
  NeutralSupplyAir,                       !- Dedicated Outdoor Air System Control Strategy
  autosize,                               !- Dedicated Outdoor Air Low Setpoint Temperature for Design {C}
  autosize;                               !- Dedicated Outdoor Air High Setpoint Temperature for Design {C}

OS:ZoneHVAC:EquipmentList,
  {d225ad27-a113-4eca-9a75-f631d6de2249}, !- Handle
  {1f4fd0f0-53fc-4dc4-8a59-9ef81a65d8c7}, !- Name
  {7c4211d2-b1cf-46f6-92bb-ef23fdb7bac0}, !- Thermal Zone
  {2f0350a1-d12d-43e6-93ca-325f839ffa9f}, !- Zone Equipment 1
  1,                                      !- Zone Equipment Cooling Sequence 1
  1;                                      !- Zone Equipment Heating or No-Load Sequence 1

OS:Space,
  {84006107-706a-489e-8d81-079fe35111fe}, !- Handle
  Room 206,                               !- Name
  ,                                       !- Space Type Name
  ,                                       !- Default Construction Set Name
  ,                                       !- Default Schedule Set Name
  -0,                                     !- Direction of Relative North {deg}
  0,                                      !- X Origin {m}
  0,                                      !- Y Origin {m}
  0,                                      !- Z Origin {m}
  {d256af6f-d817-46b6-ae8e-8f056562c70a}, !- Building Story Name
  {7c4211d2-b1cf-46f6-92bb-ef23fdb7bac0}, !- Thermal Zone Name
  ,                                       !- Part of Total Floor Area
  {1c96b3e2-e809-48ce-8a4b-d4bf87cfde17}, !- Design Specification Outdoor Air Object Name
  ;                                       !- Building Unit Name

OS:ThermostatSetpoint:DualSetpoint,
  {588351be-fe14-49fe-a234-284f595fc9fc}, !- Handle
  {882cbd62-c5df-44a4-9355-db7b82cf4283}, !- Name
  {9bd9b41e-573a-499b-93ab-f18203441945}, !- Heating Setpoint Temperature Schedule Name
  {cd3d076a-24a3-44be-8410-80a5906afddb}; !- Cooling Setpoint Temperature Schedule Name

OS:DesignSpecification:OutdoorAir,
  {1c96b3e2-e809-48ce-8a4b-d4bf87cfde17}, !- Handle
  ZoneOA Design,                          !- Name
  ,                                       !- Outdoor Air Method
  ,                                       !- Outdoor Air Flow per Person {m3/s-person}
  ,                                       !- Outdoor Air Flow per Floor Area {m3/s-m2}
  0,                                      !- Outdoor Air Flow Rate {m3/s}
  ,                                       !- Outdoor Air Flow Air Changes per Hour {1/hr}
  {18c6c86f-0e27-4271-8dad-001f50c1df0c}; !- Outdoor Air Flow Rate Fraction Schedule Name

OS:Output:Variable,
  {beb86269-77ca-4478-984a-18d416bfdc87}, !- Handle
  {0f076c6a-4681-4c20-a951-a59ac7c5d75c}, !- Name
  Room 206 Supply Inlet,                  !- Key Value
  System Node Temperature,                !- Variable Name
  Hourly;                                 !- Reporting Frequency

OS:Curve:Quadratic,
  {2574919c-33f2-4152-8ee7-322c5ab9e13d}, !- Handle
  Lennox KCA120S4 PLFFPLR,                !- Name
  0.85,                                   !- Coefficient1 Constant
  0.15,                                   !- Coefficient2 x
  0,                                      !- Coefficient3 x**2
  0,                                      !- Minimum Value of x
  1;                                      !- Maximum Value of x

OS:Output:Variable,
  {6d697eb2-f0f8-4b0c-ae11-9e9bbde694cf}, !- Handle
  {29ff6812-6c92-4dcd-bfda-30f1420521c6}, !- Name
  Room 203 Supply Inlet,                  !- Key Value
  System Node Temperature,                !- Variable Name
  Hourly;                                 !- Reporting Frequency

OS:Surface,
  {26a92a24-c4c7-4b92-bc02-38a33c40d856}, !- Handle
  2D4821,                                 !- Name
  Wall,                                   !- Surface Type
  {fed622dc-87b6-42cd-afeb-209dd2b17d6c}, !- Construction Name
  {44216e6c-8d45-4331-9392-6cdf3a38cd16}, !- Space Name
  Surface,                                !- Outside Boundary Condition
  {2b698845-090e-4a75-bbf7-a7602e582576}, !- Outside Boundary Condition Object
  NoSun,                                  !- Sun Exposure
  NoWind,                                 !- Wind Exposure
  0,                                      !- View Factor to Ground
  ,                                       !- Number of Vertices
  10.16, 12.8016, 2.7432,                 !- X,Y,Z Vertex 1 {m}
  10.16, 12.8016, 0,                      !- X,Y,Z Vertex 2 {m}
  10.16, 5.4689, 0,                       !- X,Y,Z Vertex 3 {m}
  10.16, 5.4689, 2.7432;                  !- X,Y,Z Vertex 4 {m}

OS:ThermalZone,
  {8ce3be51-d746-4c6e-9377-3479d45817b7}, !- Handle
  Room 101,                               !- Name
  ,                                       !- Multiplier
  ,                                       !- Ceiling Height {m}
  ,                                       !- Volume {m3}
  ,                                       !- Floor Area {m2}
  ,                                       !- Zone Inside Convection Algorithm
  ,                                       !- Zone Outside Convection Algorithm
  ,                                       !- Zone Conditioning Equipment List Name
  {9a4d5974-53ce-45cf-9394-d3cb922f7696}, !- Zone Air Inlet Port List
  {cb04c314-40a9-4377-9592-b84f20068a47}, !- Zone Air Exhaust Port List
  {de917765-c019-4d2a-8b13-7d040eb79b87}, !- Zone Air Node Name
  ,                                       !- Zone Return Air Node Name
  ,                                       !- Primary Daylighting Control Name
  ,                                       !- Fraction of Zone Controlled by Primary Daylighting Control
  ,                                       !- Secondary Daylighting Control Name
  ,                                       !- Fraction of Zone Controlled by Secondary Daylighting Control
  ,                                       !- Illuminance Map Name
  {70ed9cf2-c01f-40a5-b622-3596d61d82fa}, !- Group Rendering Name
  ,                                       !- Thermostat Name
  No;                                     !- Use Ideal Air Loads

OS:Node,
  {be57fdca-76b8-49e8-9eb4-e5e79050577f}, !- Handle
  {4c5beacb-b53f-4731-8b18-9b5780963029}, !- Name
  {de917765-c019-4d2a-8b13-7d040eb79b87}, !- Inlet Port
  ;                                       !- Outlet Port

OS:Connection,
  {de917765-c019-4d2a-8b13-7d040eb79b87}, !- Handle
  {e05036b1-a2fc-4e46-b820-d4418336481b}, !- Name
  {8ce3be51-d746-4c6e-9377-3479d45817b7}, !- Source Object
  11,                                     !- Outlet Port
  {be57fdca-76b8-49e8-9eb4-e5e79050577f}, !- Target Object
  2;                                      !- Inlet Port

OS:PortList,
  {9a4d5974-53ce-45cf-9394-d3cb922f7696}, !- Handle
  {84440d55-89ad-46df-a84e-c840ae70d5ef}, !- Name
  {8ce3be51-d746-4c6e-9377-3479d45817b7}; !- HVAC Component

OS:PortList,
  {cb04c314-40a9-4377-9592-b84f20068a47}, !- Handle
  {12888f6e-997e-42e2-a0bc-784d48b15c9b}, !- Name
  {8ce3be51-d746-4c6e-9377-3479d45817b7}; !- HVAC Component

OS:Sizing:Zone,
  {35408640-a290-4920-87ca-51787430e7c6}, !- Handle
  {8ce3be51-d746-4c6e-9377-3479d45817b7}, !- Zone or ZoneList Name
  SupplyAirTemperature,                   !- Zone Cooling Design Supply Air Temperature Input Method
  14,                                     !- Zone Cooling Design Supply Air Temperature {C}
  11.11,                                  !- Zone Cooling Design Supply Air Temperature Difference {deltaC}
  SupplyAirTemperature,                   !- Zone Heating Design Supply Air Temperature Input Method
  40,                                     !- Zone Heating Design Supply Air Temperature {C}
  11.11,                                  !- Zone Heating Design Supply Air Temperature Difference {deltaC}
  0.0085,                                 !- Zone Cooling Design Supply Air Humidity Ratio {kg-H2O/kg-air}
  0.008,                                  !- Zone Heating Design Supply Air Humidity Ratio {kg-H2O/kg-air}
  ,                                       !- Zone Heating Sizing Factor
  ,                                       !- Zone Cooling Sizing Factor
  DesignDay,                              !- Cooling Design Air Flow Method
  ,                                       !- Cooling Design Air Flow Rate {m3/s}
  ,                                       !- Cooling Minimum Air Flow per Zone Floor Area {m3/s-m2}
  ,                                       !- Cooling Minimum Air Flow {m3/s}
  ,                                       !- Cooling Minimum Air Flow Fraction
  DesignDay,                              !- Heating Design Air Flow Method
  ,                                       !- Heating Design Air Flow Rate {m3/s}
  ,                                       !- Heating Maximum Air Flow per Zone Floor Area {m3/s-m2}
  ,                                       !- Heating Maximum Air Flow {m3/s}
  ,                                       !- Heating Maximum Air Flow Fraction
  ,                                       !- Design Zone Air Distribution Effectiveness in Cooling Mode
  ,                                       !- Design Zone Air Distribution Effectiveness in Heating Mode
  No,                                     !- Account for Dedicated Outdoor Air System
  NeutralSupplyAir,                       !- Dedicated Outdoor Air System Control Strategy
  autosize,                               !- Dedicated Outdoor Air Low Setpoint Temperature for Design {C}
  autosize;                               !- Dedicated Outdoor Air High Setpoint Temperature for Design {C}

OS:ZoneHVAC:EquipmentList,
  {f26ea6c2-b867-459f-b147-0ba3939ebc88}, !- Handle
  {2df66bcd-5468-4966-a860-a09917c5ee0e}, !- Name
  {8ce3be51-d746-4c6e-9377-3479d45817b7}; !- Thermal Zone

OS:Space,
  {44216e6c-8d45-4331-9392-6cdf3a38cd16}, !- Handle
  Room 101,                               !- Name
  ,                                       !- Space Type Name
  ,                                       !- Default Construction Set Name
  ,                                       !- Default Schedule Set Name
  -0,                                     !- Direction of Relative North {deg}
  0,                                      !- X Origin {m}
  0,                                      !- Y Origin {m}
  0,                                      !- Z Origin {m}
  {e019fe1d-e8a1-4d2e-b5ac-961c4fa27627}, !- Building Story Name
  {8ce3be51-d746-4c6e-9377-3479d45817b7}, !- Thermal Zone Name
  ,                                       !- Part of Total Floor Area
  ,                                       !- Design Specification Outdoor Air Object Name
  ;                                       !- Building Unit Name

OS:ThermalZone,
  {dd77e5bc-8efa-4ca6-aa63-7c1d04732e87}, !- Handle
  Room 102,                               !- Name
  ,                                       !- Multiplier
  ,                                       !- Ceiling Height {m}
  ,                                       !- Volume {m3}
  ,                                       !- Floor Area {m2}
  ,                                       !- Zone Inside Convection Algorithm
  ,                                       !- Zone Outside Convection Algorithm
  ,                                       !- Zone Conditioning Equipment List Name
  {c928bab4-23e7-454c-849b-f9acb58272a1}, !- Zone Air Inlet Port List
  {cca3178c-dee8-4ccf-b554-d0b0821707ec}, !- Zone Air Exhaust Port List
  {67afa656-9fb5-4df8-aa63-4c93024b8537}, !- Zone Air Node Name
  {60917258-86db-4194-9301-c267b7eb44d3}, !- Zone Return Air Node Name
  ,                                       !- Primary Daylighting Control Name
  ,                                       !- Fraction of Zone Controlled by Primary Daylighting Control
  ,                                       !- Secondary Daylighting Control Name
  ,                                       !- Fraction of Zone Controlled by Secondary Daylighting Control
  ,                                       !- Illuminance Map Name
  {8b2ab31b-b970-4b6d-9bdb-19ee130572d7}, !- Group Rendering Name
  {fee3b0c2-67e5-4900-be4a-c22d2f0725fc}, !- Thermostat Name
  No;                                     !- Use Ideal Air Loads

OS:Node,
  {237d3d13-7e3d-419f-b0b2-a3a158455971}, !- Handle
  {8411efaa-a23b-4a5a-be30-f1fa819dbe95}, !- Name
  {67afa656-9fb5-4df8-aa63-4c93024b8537}, !- Inlet Port
  ;                                       !- Outlet Port

OS:Connection,
  {67afa656-9fb5-4df8-aa63-4c93024b8537}, !- Handle
  {49e8bd4d-d193-48ab-b002-044ca8fa99b4}, !- Name
  {dd77e5bc-8efa-4ca6-aa63-7c1d04732e87}, !- Source Object
  11,                                     !- Outlet Port
  {237d3d13-7e3d-419f-b0b2-a3a158455971}, !- Target Object
  2;                                      !- Inlet Port

OS:PortList,
  {c928bab4-23e7-454c-849b-f9acb58272a1}, !- Handle
  {c55f46aa-7e7a-4ee5-9169-5a8f47bd55fb}, !- Name
  {dd77e5bc-8efa-4ca6-aa63-7c1d04732e87}, !- HVAC Component
  {45024f12-3d75-4829-b81a-0e4e6385aa69}; !- Port 1

OS:PortList,
  {cca3178c-dee8-4ccf-b554-d0b0821707ec}, !- Handle
  {7018a114-4d39-4369-a5f0-2b639d8caf74}, !- Name
  {dd77e5bc-8efa-4ca6-aa63-7c1d04732e87}; !- HVAC Component

OS:Sizing:Zone,
  {de34c861-0ac8-4639-bcd0-86a1abda34d2}, !- Handle
  {dd77e5bc-8efa-4ca6-aa63-7c1d04732e87}, !- Zone or ZoneList Name
  SupplyAirTemperature,                   !- Zone Cooling Design Supply Air Temperature Input Method
  14.4444444444444,                       !- Zone Cooling Design Supply Air Temperature {C}