
OS:Version,
  {71c13ca0-2e4f-468f-9045-7e997f4f1bbd}, !- Handle
  1.7.0;                                  !- Version Identifier

OS:ClimateZones,
  {fba13702-8735-474b-97f5-2b562d9c4846}, !- Handle
  ,                                       !- Active Institution
  ,                                       !- Active Year
  ASHRAE,                                 !- Climate Zone Institution Name 1
  ANSI/ASHRAE Standard 169,               !- Climate Zone Document Name 1
  2006,                                   !- Climate Zone Document Year 1
  ,                                       !- Climate Zone Value 1
  CEC,                                    !- Climate Zone Institution Name 2
  California Climate Zone Descriptions,   !- Climate Zone Document Name 2
  1995,                                   !- Climate Zone Document Year 2
  ;                                       !- Climate Zone Value 2

OS:LifeCycleCost:Parameters,
  {b89cc9cb-a588-4c44-8f77-7e311fb3066c}, !- Handle
  FEMP,                                   !- Analysis Type
  ,                                       !- Discounting Convention
  ,                                       !- Inflation Approach
  ,                                       !- Real Discount Rate
  ,                                       !- Nominal Discount Rate
  ,                                       !- Inflation
  ,                                       !- Base Date Month
  ,                                       !- Base Date Year
  ,                                       !- Service Date Month
  ,                                       !- Service Date Year
  ,                                       !- Length of Study Period in Years
  ,                                       !- Tax Rate
  ,                                       !- Depreciation Method
  Yes;                                    !- Use NIST Fuel Escalation Rates

OS:YearDescription,
  {9809b5fb-8765-4955-9739-d4d2598783a0}, !- Handle
  ,                                       !- Calendar Year
  Sunday;                                 !- Day of Week for Start Day

OS:Building,
  {8a9adb9d-75bd-4146-9634-6786ad900714}, !- Handle
  Building 1,                             !- Name
  ,                                       !- Building Sector Type
  ,                                       !- North Axis {deg}
  ,                                       !- Nominal Floor to Floor Height {m}
  {de89bf7c-1142-471f-b70d-5c2d1731489d}, !- Space Type Name
  {98224d6b-af5d-4c1e-94c0-7dc1a9fbfc6d}, !- Default Construction Set Name
  ,                                       !- Default Schedule Set Name
  ,                                       !- Standards Number of Stories
  ,                                       !- Standards Number of Above Ground Stories
  ;                                       !- Standards Building Type

OS:Facility,
  {dd502c8c-d285-4baf-9965-46cb3384555a}; !- Handle

OS:BuildingStory,
  {a02a6c84-8596-4232-9518-3968697af054}, !- Handle
  Story 1,                                !- Name
  0,                                      !- Nominal Z Coordinate {m}
  3.048,                                  !- Nominal Floor to Floor Height {m}
  ,                                       !- Default Construction Set Name
  ,                                       !- Default Schedule Set Name
  {8628f112-a755-4cb1-a51b-30938f6e9634}; !- Group Rendering Name

OS:Space,
  {7fc33349-a6c0-4e96-814d-55ce3a9d1070}, !- Handle
  Story 1 West Perimeter Space,           !- Name
  ,                                       !- Space Type Name
  ,                                       !- Default Construction Set Name
  ,                                       !- Default Schedule Set Name
  -0,                                     !- Direction of Relative North {deg}
  0,                                      !- X Origin {m}
  0,                                      !- Y Origin {m}
  0,                                      !- Z Origin {m}
  {a02a6c84-8596-4232-9518-3968697af054}, !- Building Story Name
  {94483dc0-8823-42aa-8420-c539174d8acf}; !- Thermal Zone Name

OS:Surface,
  {ba5075ba-8777-4351-9778-a8c03b54eebe}, !- Handle
  Surface 1,                              !- Name
  Floor,                                  !- Surface Type
  ,                                       !- Construction Name
  ,                                       !- Space Name
  Ground,                                 !- Outside Boundary Condition
  ,                                       !- Outside Boundary Condition Object
  NoSun,                                  !- Sun Exposure
  NoWind,                                 !- Wind Exposure
  ,                                       !- View Factor to Ground
  ,                                       !- Number of Vertices
  0, 15.24, 0,                            !- X,Y,Z Vertex 1 {m}
  4.57, 10.67, 0,                         !- X,Y,Z Vertex 2 {m}
  4.57, 4.57, 0,                          !- X,Y,Z Vertex 3 {m}
  0, 0, 0;                                !- X,Y,Z Vertex 4 {m}

OS:Surface,
  {1157b64e-0a52-4d65-9b77-dd9d36fd8b83}, !- Handle
  Surface 2,                              !- Name
  Wall,                                   !- Surface Type
  ,                                       !- Construction Name
  {7fc33349-a6c0-4e96-814d-55ce3a9d1070}, !- Space Name
  Outdoors,                               !- Outside Boundary Condition
  ,                                       !- Outside Boundary Condition Object
  SunExposed,                             !- Sun Exposure
  WindExposed,                            !- Wind Exposure
  ,                                       !- View Factor to Ground
  ,                                       !- Number of Vertices
  0, 15.24, 3.048,                        !- X,Y,Z Vertex 1 {m}
  0, 15.24, 0,                            !- X,Y,Z Vertex 2 {m}
  0, 0, 0,                                !- X,Y,Z Vertex 3 {m}
  0, 0, 3.048;                            !- X,Y,Z Vertex 4 {m}

OS:Surface,
  {16165460-2f3a-4581-8ab3-55749268a45b}, !- Handle
  Surface 3,                              !- Name
  Wall,                                   !- Surface Type
  ,                                       !- Construction Name
  {7fc33349-a6c0-4e96-814d-55ce3a9d1070}, !- Space Name
  Surface,                                !- Outside Boundary Condition
  {89a4a3ed-0a94-4ccb-9509-e73cfcd75e32}, !- Outside Boundary Condition Object
  NoSun,                                  !- Sun Exposure
  NoWind,                                 !- Wind Exposure
  ,                                       !- View Factor to Ground
  ,                                       !- Number of Vertices
  4.57, 10.67, 3.048,                     !- X,Y,Z Vertex 1 {m}
  4.57, 10.67, 0,                         !- X,Y,Z Vertex 2 {m}
  0, 15.24, 0,                            !- X,Y,Z Vertex 3 {m}
  0, 15.24, 3.048;                        !- X,Y,Z Vertex 4 {m}

OS:Surface,
  {8cc038de-b405-489a-9566-f994845ec8e2}, !- Handle
  Surface 4,                              !- Name
  Wall,                                   !- Surface Type
  ,                                       !- Construction Name
  {7fc33349-a6c0-4e96-814d-55ce3a9d1070}, !- Space Name
  Surface,                                !- Outside Boundary Condition
  {81458884-c0b2-4aea-b796-38b0a09e7d34}, !- Outside Boundary Condition Object
  NoSun,                                  !- Sun Exposure
  NoWind,                                 !- Wind Exposure
  ,                                       !- View Factor to Ground
  ,                                       !- Number of Vertices
  4.57, 4.57, 3.048,                      !- X,Y,Z Vertex 1 {m}
  4.57, 4.57, 0,                          !- X,Y,Z Vertex 2 {m}
  4.57, 10.67, 0,                         !- X,Y,Z Vertex 3 {m}
  4.57, 10.67, 3.048;                     !- X,Y,Z Vertex 4 {m}

OS:Surface,
  {1de635d3-2ae9-40c7-8ca1-1bab7be16217}, !- Handle
  Surface 5,                              !- Name
  Wall,                                   !- Surface Type
  ,                                       !- Construction Name
  {7fc33349-a6c0-4e96-814d-55ce3a9d1070}, !- Space Name
  Surface,                                !- Outside Boundary Condition
  {b091a6fd-9612-4e08-b305-0f374c4fed19}, !- Outside Boundary Condition Object
  NoSun,                                  !- Sun Exposure
  NoWind,                                 !- Wind Exposure
  ,                                       !- View Factor to Ground
  ,                                       !- Number of Vertices
  0, 0, 3.048,                            !- X,Y,Z Vertex 1 {m}
  0, 0, 0,                                !- X,Y,Z Vertex 2 {m}
  4.57, 4.57, 0,                          !- X,Y,Z Vertex 3 {m}
  4.57, 4.57, 3.048;                      !- X,Y,Z Vertex 4 {m}

OS:Surface,
  {ceb2ad16-c13b-49f4-8825-f3d71835a4ef}, !- Handle
  Surface 6,                              !- Name
  RoofCeiling,                            !- Surface Type
  ,                                       !- Construction Name
  {7fc33349-a6c0-4e96-814d-55ce3a9d1070}, !- Space Name
  Surface,                                !- Outside Boundary Condition
  {d599e0c8-7007-4631-8aab-d2fd13b76b19}, !- Outside Boundary Condition Object
  NoSun,                                  !- Sun Exposure
  NoWind,                                 !- Wind Exposure
  ,                                       !- View Factor to Ground
  ,                                       !- Number of Vertices
  0, 0, 3.048,                            !- X,Y,Z Vertex 1 {m}
  4.57, 4.57, 3.048,                      !- X,Y,Z Vertex 2 {m}
  4.57, 10.67, 3.048,                     !- X,Y,Z Vertex 3 {m}
  0, 15.24, 3.048;                        !- X,Y,Z Vertex 4 {m}

OS:Space,
  {a7ab4c2d-b108-4e2b-9816-b6122ece0aa6}, !- Handle
  Story 1 North Perimeter Space,          !- Name
  ,                                       !- Space Type Name
  ,                                       !- Default Construction Set Name
  ,                                       !- Default Schedule Set Name
  -0,                                     !- Direction of Relative North {deg}
  4.57,                                   !- X Origin {m}
  10.67,                                  !- Y Origin {m}
  0,                                      !- Z Origin {m}
  {a02a6c84-8596-4232-9518-3968697af054}, !- Building Story Name
  {0f39c70e-31ab-467c-ae63-2117d25b59fa}; !- Thermal Zone Name

OS:Surface,
  {91d6cd3a-c88b-4d31-a9b9-46c6b3565dcd}, !- Handle
  Surface 7,                              !- Name
  Floor,                                  !- Surface Type
  ,                                       !- Construction Name
  {a7ab4c2d-b108-4e2b-9816-b6122ece0aa6}, !- Space Name
  Ground,                                 !- Outside Boundary Condition
  ,                                       !- Outside Boundary Condition Object
  NoSun,                                  !- Sun Exposure
  NoWind,                                 !- Wind Exposure
  ,                                       !- View Factor to Ground
  ,                                       !- Number of Vertices
  25.91, 4.57, 0,                         !- X,Y,Z Vertex 1 {m}
  21.34, 0, 0,                            !- X,Y,Z Vertex 2 {m}
  0, 0, 0,                                !- X,Y,Z Vertex 3 {m}
  -4.57, 4.57, 0;                         !- X,Y,Z Vertex 4 {m}

OS:Surface,
  {e16395ec-9c58-4f4e-bb3b-73002562e130}, !- Handle
  Surface 8,                              !- Name
  Wall,                                   !- Surface Type
  ,                                       !- Construction Name
  {a7ab4c2d-b108-4e2b-9816-b6122ece0aa6}, !- Space Name
  Outdoors,                               !- Outside Boundary Condition
  ,                                       !- Outside Boundary Condition Object
  SunExposed,                             !- Sun Exposure
  WindExposed,                            !- Wind Exposure
  ,                                       !- View Factor to Ground
  ,                                       !- Number of Vertices
  25.91, 4.57, 3.048,                     !- X,Y,Z Vertex 1 {m}
  25.91, 4.57, 0,                         !- X,Y,Z Vertex 2 {m}
  -4.57, 4.57, 0,                         !- X,Y,Z Vertex 3 {m}
  -4.57, 4.57, 3.048;                     !- X,Y,Z Vertex 4 {m}

OS:Surface,
  {e08ada16-a11c-4b92-b0cd-8f9dc9df225d}, !- Handle
  Surface 9,                              !- Name
  Wall,                                   !- Surface Type
  ,                                       !- Construction Name
  {a7ab4c2d-b108-4e2b-9816-b6122ece0aa6}, !- Space Name
  Surface,                                !- Outside Boundary Condition
  {23309214-d4bf-4dd6-837b-49accc6d3d4d}, !- Outside Boundary Condition Object
  NoSun,                                  !- Sun Exposure
  NoWind,                                 !- Wind Exposure
  ,                                       !- View Factor to Ground
  ,                                       !- Number of Vertices
  21.34, -2.04187384066908e-015, 3.048,   !- X,Y,Z Vertex 1 {m}
  21.34, -2.04187384066908e-015, 0,       !- X,Y,Z Vertex 2 {m}
  25.91, 4.57, 0,                         !- X,Y,Z Vertex 3 {m}
  25.91, 4.57, 3.048;                     !- X,Y,Z Vertex 4 {m}

OS:Surface,
  {596895aa-5080-4e77-8ddd-16b0b4723f23}, !- Handle
  Surface 10,                             !- Name
  Wall,                                   !- Surface Type
  ,                                       !- Construction Name
  {a7ab4c2d-b108-4e2b-9816-b6122ece0aa6}, !- Space Name
  Surface,                                !- Outside Boundary Condition
  {0b707850-870a-453b-8851-dd6843f65eb1}, !- Outside Boundary Condition Object
  NoSun,                                  !- Sun Exposure
  NoWind,                                 !- Wind Exposure
  ,                                       !- View Factor to Ground
  ,                                       !- Number of Vertices
  0, 0, 3.048,                            !- X,Y,Z Vertex 1 {m}
  0, 0, 0,                                !- X,Y,Z Vertex 2 {m}
  21.34, 0, 0,                            !- X,Y,Z Vertex 3 {m}
  21.34, 0, 3.048;                        !- X,Y,Z Vertex 4 {m}

OS:Surface,
  {89a4a3ed-0a94-4ccb-9509-e73cfcd75e32}, !- Handle
  Surface 11,                             !- Name
  Wall,                                   !- Surface Type
  ,                                       !- Construction Name
  {a7ab4c2d-b108-4e2b-9816-b6122ece0aa6}, !- Space Name
  Surface,                                !- Outside Boundary Condition
  {16165460-2f3a-4581-8ab3-55749268a45b}, !- Outside Boundary Condition Object
  NoSun,                                  !- Sun Exposure
  NoWind,                                 !- Wind Exposure
  ,                                       !- View Factor to Ground
  ,                                       !- Number of Vertices
  -4.57, 4.57, 3.048,                     !- X,Y,Z Vertex 1 {m}
  -4.57, 4.57, 0,                         !- X,Y,Z Vertex 2 {m}
  0, 0, 0,                                !- X,Y,Z Vertex 3 {m}
  0, 0, 3.048;                            !- X,Y,Z Vertex 4 {m}

OS:Surface,
  {061f5727-8bd1-4518-9c3c-05fae934c30a}, !- Handle
  Surface 12,                             !- Name
  RoofCeiling,                            !- Surface Type
  ,                                       !- Construction Name
  {a7ab4c2d-b108-4e2b-9816-b6122ece0aa6}, !- Space Name
  Surface,                                !- Outside Boundary Condition
  {18919712-ebec-4961-a50b-9f0bc393e028}, !- Outside Boundary Condition Object
  NoSun,                                  !- Sun Exposure
  NoWind,                                 !- Wind Exposure
  ,                                       !- View Factor to Ground
  ,                                       !- Number of Vertices
  21.34, 0, 3.048,                        !- X,Y,Z Vertex 1 {m}
  25.91, 4.57, 3.048,                     !- X,Y,Z Vertex 2 {m}
  -4.57, 4.57, 3.048,                     !- X,Y,Z Vertex 3 {m}
  0, 0, 3.048;                            !- X,Y,Z Vertex 4 {m}

OS:Space,
  {3e334f23-11dd-4369-b43c-8294cc282fa4}, !- Handle
  Story 1 East Perimeter Space,           !- Name
  ,                                       !- Space Type Name
  ,                                       !- Default Construction Set Name
  ,                                       !- Default Schedule Set Name
  -0,                                     !- Direction of Relative North {deg}
  25.91,                                  !- X Origin {m}
  4.57,                                   !- Y Origin {m}
  0,                                      !- Z Origin {m}
  {a02a6c84-8596-4232-9518-3968697af054}, !- Building Story Name
  {e5096bce-1024-485b-b2ae-b106599b8d35}; !- Thermal Zone Name

OS:Surface,
  {65832a54-cf69-43f2-99b8-765f809f79f6}, !- Handle
  Surface 13,                             !- Name
  Floor,                                  !- Surface Type
  ,                                       !- Construction Name
  {3e334f23-11dd-4369-b43c-8294cc282fa4}, !- Space Name
  Ground,                                 !- Outside Boundary Condition
  ,                                       !- Outside Boundary Condition Object
  NoSun,                                  !- Sun Exposure
  NoWind,                                 !- Wind Exposure
  ,                                       !- View Factor to Ground
  ,                                       !- Number of Vertices
  4.57, 10.67, 0,                         !- X,Y,Z Vertex 1 {m}
  4.57, -4.57, 0,                         !- X,Y,Z Vertex 2 {m}
  -3.5527136788005e-015, 0, 0,            !- X,Y,Z Vertex 3 {m}
  -3.5527136788005e-015, 6.1, 0;          !- X,Y,Z Vertex 4 {m}

OS:Surface,
  {49cba6cb-1331-46bd-8486-7c47d355c97a}, !- Handle
  Surface 14,                             !- Name
  Wall,                                   !- Surface Type
  ,                                       !- Construction Name
  {3e334f23-11dd-4369-b43c-8294cc282fa4}, !- Space Name
  Outdoors,                               !- Outside Boundary Condition
  ,                                       !- Outside Boundary Condition Object
  SunExposed,                             !- Sun Exposure
  WindExposed,                            !- Wind Exposure
  ,                                       !- View Factor to Ground
  ,                                       !- Number of Vertices
  4.57, -4.57, 3.048,                     !- X,Y,Z Vertex 1 {m}
  4.57, -4.57, 0,                         !- X,Y,Z Vertex 2 {m}
  4.57, 10.67, 0,                         !- X,Y,Z Vertex 3 {m}
  4.57, 10.67, 3.048;                     !- X,Y,Z Vertex 4 {m}

OS:Surface,
  {05445da5-dadb-46e5-9d59-d9d9674b7e6f}, !- Handle
  Surface 15,                             !- Name
  Wall,                                   !- Surface Type
  ,                                       !- Construction Name
  {3e334f23-11dd-4369-b43c-8294cc282fa4}, !- Space Name
  Surface,                                !- Outside Boundary Condition
  {490c3955-0a6a-4bd6-bba5-facc5a03e800}, !- Outside Boundary Condition Object
  NoSun,                                  !- Sun Exposure
  NoWind,                                 !- Wind Exposure
  ,                                       !- View Factor to Ground
  ,                                       !- Number of Vertices
  -3.56299644998569e-015, -1.02827711851918e-017, 3.048, !- X,Y,Z Vertex 1 {m}
  -3.56299644998569e-015, -1.02827711851918e-017, 0, !- X,Y,Z Vertex 2 {m}
  4.57, -4.57, 0,                         !- X,Y,Z Vertex 3 {m}
  4.57, -4.57, 3.048;                     !- X,Y,Z Vertex 4 {m}

OS:Surface,
  {7467d0c4-e66c-4db4-b880-85ebf273e656}, !- Handle
  Surface 16,                             !- Name
  Wall,                                   !- Surface Type
  ,                                       !- Construction Name
  {3e334f23-11dd-4369-b43c-8294cc282fa4}, !- Space Name
  Surface,                                !- Outside Boundary Condition
  {ffaeccee-40de-4a02-b3b7-48e71b8279f3}, !- Outside Boundary Condition Object
  NoSun,                                  !- Sun Exposure
  NoWind,                                 !- Wind Exposure
  ,                                       !- View Factor to Ground
  ,                                       !- Number of Vertices
  -3.5527136788005e-015, 6.1, 3.048,      !- X,Y,Z Vertex 1 {m}
  -3.5527136788005e-015, 6.1, 0,          !- X,Y,Z Vertex 2 {m}
  -3.5527136788005e-015, 0, 0,            !- X,Y,Z Vertex 3 {m}
  -3.5527136788005e-015, 0, 3.048;        !- X,Y,Z Vertex 4 {m}

OS:Surface,
  {23309214-d4bf-4dd6-837b-49accc6d3d4d}, !- Handle
  Surface 17,                             !- Name
  Wall,                                   !- Surface Type
  ,                                       !- Construction Name
  {3e334f23-11dd-4369-b43c-8294cc282fa4}, !- Space Name
  Surface,                                !- Outside Boundary Condition
  {e08ada16-a11c-4b92-b0cd-8f9dc9df225d}, !- Outside Boundary Condition Object
  NoSun,                                  !- Sun Exposure
  NoWind,                                 !- Wind Exposure
  ,                                       !- View Factor to Ground
  ,                                       !- Number of Vertices
  4.57, 10.67, 3.048,                     !- X,Y,Z Vertex 1 {m}
  4.57, 10.67, 0,                         !- X,Y,Z Vertex 2 {m}
  -4.06318213896777e-015, 6.1, 0,         !- X,Y,Z Vertex 3 {m}
  -4.06318213896777e-015, 6.1, 3.048;     !- X,Y,Z Vertex 4 {m}

OS:Surface,
  {8f3711ca-5c56-4e99-89ca-2d98cae1b48d}, !- Handle
  Surface 18,                             !- Name
  RoofCeiling,                            !- Surface Type
  ,                                       !- Construction Name
  {3e334f23-11dd-4369-b43c-8294cc282fa4}, !- Space Name
  Surface,                                !- Outside Boundary Condition
  {2f7e348a-df1b-47c6-93c5-a08b609d95d0}, !- Outside Boundary Condition Object
  NoSun,                                  !- Sun Exposure
  NoWind,                                 !- Wind Exposure
  ,                                       !- View Factor to Ground
  ,                                       !- Number of Vertices
  4.57, -4.57, 3.048,                     !- X,Y,Z Vertex 1 {m}
  4.57, 10.67, 3.048,                     !- X,Y,Z Vertex 2 {m}
  -3.5527136788005e-015, 6.1, 3.048,      !- X,Y,Z Vertex 3 {m}
  -3.5527136788005e-015, 0, 3.048;        !- X,Y,Z Vertex 4 {m}

OS:Space,
  {1d359aa4-b427-497f-b4f5-028732b4b7f0}, !- Handle
  Story 1 South Perimeter Space,          !- Name
  ,                                       !- Space Type Name
  ,                                       !- Default Construction Set Name
  ,                                       !- Default Schedule Set Name
  -0,                                     !- Direction of Relative North {deg}
  0,                                      !- X Origin {m}
  0,                                      !- Y Origin {m}
  0,                                      !- Z Origin {m}
  {a02a6c84-8596-4232-9518-3968697af054}, !- Building Story Name
  {ecf1ed55-1bc3-44ff-8899-af6f6aa9af88}, !- Thermal Zone Name
  ,                                       !- Part of Total Floor Area
  ;                                       !- Design Specification Outdoor Air Object Name

OS:Surface,
  {f90e32e9-4104-4c1d-a55b-329f4c85d26c}, !- Handle
  Surface 19,                             !- Name
  Floor,                                  !- Surface Type
  ,                                       !- Construction Name
  {1d359aa4-b427-497f-b4f5-028732b4b7f0}, !- Space Name
  Ground,                                 !- Outside Boundary Condition
  ,                                       !- Outside Boundary Condition Object
  NoSun,                                  !- Sun Exposure
  NoWind,                                 !- Wind Exposure
  ,                                       !- View Factor to Ground
  ,                                       !- Number of Vertices
  25.91, 4.57, 0,                         !- X,Y,Z Vertex 1 {m}
  30.48, 0, 0,                            !- X,Y,Z Vertex 2 {m}
  0, 0, 0,                                !- X,Y,Z Vertex 3 {m}
  4.57, 4.57, 0;                          !- X,Y,Z Vertex 4 {m}

OS:Surface,
  {dfafa18b-b331-4af4-b91f-2b5e2a9a95d5}, !- Handle
  Surface 20,                             !- Name
  Wall,                                   !- Surface Type
  ,                                       !- Construction Name
  {1d359aa4-b427-497f-b4f5-028732b4b7f0}, !- Space Name
  Outdoors,                               !- Outside Boundary Condition
  ,                                       !- Outside Boundary Condition Object
  SunExposed,                             !- Sun Exposure
  WindExposed,                            !- Wind Exposure
  ,                                       !- View Factor to Ground
  ,                                       !- Number of Vertices
  0, 0, 3.048,                            !- X,Y,Z Vertex 1 {m}
  0, 0, 0,                                !- X,Y,Z Vertex 2 {m}
  30.48, 0, 0,                            !- X,Y,Z Vertex 3 {m}
  30.48, 0, 3.048;                        !- X,Y,Z Vertex 4 {m}

OS:Surface,
  {b091a6fd-9612-4e08-b305-0f374c4fed19}, !- Handle
  Surface 21,                             !- Name
  Wall,                                   !- Surface Type
  ,                                       !- Construction Name
  {1d359aa4-b427-497f-b4f5-028732b4b7f0}, !- Space Name
  Surface,                                !- Outside Boundary Condition
  {1de635d3-2ae9-40c7-8ca1-1bab7be16217}, !- Outside Boundary Condition Object
  NoSun,                                  !- Sun Exposure
  NoWind,                                 !- Wind Exposure
  ,                                       !- View Factor to Ground
  ,                                       !- Number of Vertices
  4.57, 4.57, 3.048,                      !- X,Y,Z Vertex 1 {m}
  4.57, 4.57, 0,                          !- X,Y,Z Vertex 2 {m}
  0, 0, 0,                                !- X,Y,Z Vertex 3 {m}
  0, 0, 3.048;                            !- X,Y,Z Vertex 4 {m}

OS:Surface,
  {a5e021da-ee98-4c5c-a722-2abfdf02aeba}, !- Handle
  Surface 22,                             !- Name
  Wall,                                   !- Surface Type
  ,                                       !- Construction Name
  {1d359aa4-b427-497f-b4f5-028732b4b7f0}, !- Space Name
  Surface,                                !- Outside Boundary Condition
  {c4824307-1c34-4fef-b008-e0eeb3f11f87}, !- Outside Boundary Condition Object
  NoSun,                                  !- Sun Exposure
  NoWind,                                 !- Wind Exposure
  ,                                       !- View Factor to Ground
  ,                                       !- Number of Vertices
  25.91, 4.57, 3.048,                     !- X,Y,Z Vertex 1 {m}
  25.91, 4.57, 0,                         !- X,Y,Z Vertex 2 {m}
  4.57, 4.57, 0,                          !- X,Y,Z Vertex 3 {m}
  4.57, 4.57, 3.048;                      !- X,Y,Z Vertex 4 {m}

OS:Surface,
  {490c3955-0a6a-4bd6-bba5-facc5a03e800}, !- Handle
  Surface 23,                             !- Name
  Wall,                                   !- Surface Type
  ,                                       !- Construction Name
  {1d359aa4-b427-497f-b4f5-028732b4b7f0}, !- Space Name
  Surface,                                !- Outside Boundary Condition
  {05445da5-dadb-46e5-9d59-d9d9674b7e6f}, !- Outside Boundary Condition Object
  NoSun,                                  !- Sun Exposure
  NoWind,                                 !- Wind Exposure
  ,                                       !- View Factor to Ground
  ,                                       !- Number of Vertices
  30.48, -2.04187384066908e-015, 3.048,   !- X,Y,Z Vertex 1 {m}
  30.48, -2.04187384066908e-015, 0,       !- X,Y,Z Vertex 2 {m}
  25.91, 4.57, 0,                         !- X,Y,Z Vertex 3 {m}
  25.91, 4.57, 3.048;                     !- X,Y,Z Vertex 4 {m}

OS:Surface,
  {6dcb1a5b-1a2d-4988-8532-d931d0986988}, !- Handle
  Surface 24,                             !- Name
  RoofCeiling,                            !- Surface Type
  ,                                       !- Construction Name
  {1d359aa4-b427-497f-b4f5-028732b4b7f0}, !- Space Name
  Surface,                                !- Outside Boundary Condition
  {8a834441-8c43-4ee9-a571-5f327dbb94c6}, !- Outside Boundary Condition Object
  NoSun,                                  !- Sun Exposure
  NoWind,                                 !- Wind Exposure
  ,                                       !- View Factor to Ground
  ,                                       !- Number of Vertices
  30.48, 0, 3.048,                        !- X,Y,Z Vertex 1 {m}
  25.91, 4.57, 3.048,                     !- X,Y,Z Vertex 2 {m}
  4.57, 4.57, 3.048,                      !- X,Y,Z Vertex 3 {m}
  0, 0, 3.048;                            !- X,Y,Z Vertex 4 {m}

OS:Space,
  {2cc5e4e8-1063-4daf-a1e8-64b2ffb7146a}, !- Handle
  Story 1 Core Space,                     !- Name
  ,                                       !- Space Type Name
  ,                                       !- Default Construction Set Name
  ,                                       !- Default Schedule Set Name
  -0,                                     !- Direction of Relative North {deg}
  4.57,                                   !- X Origin {m}
  4.57,                                   !- Y Origin {m}
  0,                                      !- Z Origin {m}
  {a02a6c84-8596-4232-9518-3968697af054}, !- Building Story Name
  {a9a7f942-f814-4846-9e79-50769160033e}; !- Thermal Zone Name

OS:Surface,
  {b4a3bc13-5001-474a-b12f-417231d86c3f}, !- Handle
  Surface 25,                             !- Name
  Floor,                                  !- Surface Type