
OS:Version,
  {a9486ffa-6532-4829-b76e-04833c4821bc}, !- Handle
  3.0.0;                                  !- Version Identifier

OS:Site,
  {93a7791f-ac0c-4dd8-9e55-84dead06a388}, !- Handle
  Seattle Seattle Tacoma Intl A,          !- Name
  47.47,                                  !- Latitude {deg}
  -122.32,                                !- Longitude {deg}
  -8,                                     !- Time Zone {hr}
  122,                                    !- Elevation {m}
  City;                                   !- Terrain

OS:YearDescription,
  {63ba32e2-9020-4603-b442-b169e907044e}, !- Handle
  ,                                       !- Calendar Year
  Sunday;                                 !- Day of Week for Start Day

OS:ClimateZones,
  {fc167f9d-18f7-406e-be50-aa2826676cb6}, !- Handle
  ASHRAE,                                 !- Climate Zone Institution Name 1
  ANSI/ASHRAE Standard 169,               !- Climate Zone Document Name 1
  2006,                                   !- Climate Zone Document Year 1
  ,                                       !- Climate Zone Value 1
  CEC,                                    !- Climate Zone Institution Name 2
  California Climate Zone Descriptions,   !- Climate Zone Document Name 2
  1995,                                   !- Climate Zone Document Year 2
  ;                                       !- Climate Zone Value 2

OS:Facility,
  {17b0db12-7fb3-41f6-8ec6-f72436d60509}; !- Handle

OS:SimulationControl,
  {4dcae1a7-9492-4a3d-8df3-1cb53b07f2de}, !- Handle
  ,                                       !- Do Zone Sizing Calculation
  ,                                       !- Do System Sizing Calculation
  ,                                       !- Do Plant Sizing Calculation
  No,                                     !- Run Simulation for Sizing Periods
  Yes;                                    !- Run Simulation for Weather File Run Periods

OS:Sizing:Parameters,
  {38d986cd-ff13-447f-b75c-59f4cea9cffa}, !- Handle
  1.25,                                   !- Heating Sizing Factor
  1.15;                                   !- Cooling Sizing Factor

OS:Timestep,
  {8afe60e4-d8bb-424b-8126-803a056f486d}, !- Handle
  6;                                      !- Number of Timesteps per Hour

OS:ShadowCalculation,
  {9d045837-b89b-4d30-bdd5-0d61f6041f2e}, !- Handle
  PolygonClipping,                        !- Shading Calculation Method
  ,                                       !- Shading Calculation Update Frequency Method
  20,                                     !- Shading Calculation Update Frequency
  15000,                                  !- Maximum Figures in Shadow Overlap Calculations
  ,                                       !- Polygon Clipping Algorithm
  512,                                    !- Pixel Counting Resolution
  ,                                       !- Sky Diffuse Modeling Algorithm
  No,                                     !- Output External Shading Calculation Results
  No,                                     !- Disable Self-Shading Within Shading Zone Groups
  No;                                     !- Disable Self-Shading From Shading Zone Groups to Other Zones

OS:HeatBalanceAlgorithm,
  {e99f4641-dc66-4325-9b7f-5d7625c10957}, !- Handle
  ConductionTransferFunction,             !- Algorithm
  200;                                    !- Surface Temperature Upper Limit {C}

OS:RunPeriod,
  {3b0d6334-7183-4cbe-8cb1-ecba7e8aa7d5}, !- Handle
  Run Period 1,                           !- Name
  1,                                      !- Begin Month
  1,                                      !- Begin Day of Month
  12,                                     !- End Month
  31,                                     !- End Day of Month
  ,                                       !- Use Weather File Holidays and Special Days
  ,                                       !- Use Weather File Daylight Saving Period
  ,                                       !- Apply Weekend Holiday Rule
  ,                                       !- Use Weather File Rain Indicators
  ,                                       !- Use Weather File Snow Indicators
  ;                                       !- Number of Times Runperiod to be Repeated

OS:LifeCycleCost:Parameters,
  {3447212c-b4c1-4025-82ae-80d3c545d12d}, !- Handle
  ,                                       !- Analysis Type
  ,                                       !- Discounting Convention
  ,                                       !- Inflation Approach
  ,                                       !- Real Discount Rate
  ,                                       !- Nominal Discount Rate
  ,                                       !- Inflation
  ,                                       !- Base Date Month
  ,                                       !- Base Date Year
  ,                                       !- Service Date Month
  ,                                       !- Service Date Year
  ;                                       !- Length of Study Period in Years

OS:WeatherFile,
  {bbf90774-a1ae-4f5a-ba48-a027dbab1998}, !- Handle
  Seattle Seattle Tacoma Intl A,          !- City
  WA,                                     !- State Province Region
  USA,                                    !- Country
  TMY3,                                   !- Data Source
  727930,                                 !- WMO Number
  47.47,                                  !- Latitude {deg}
  -122.32,                                !- Longitude {deg}
  -8,                                     !- Time Zone {hr}
  122,                                    !- Elevation {m}
  USA_WA_Seattle-Tacoma.Intl.AP.727930_TMY3.epw, !- Url
  92912389;                               !- Checksum

OS:Site:WaterMainsTemperature,
  {abb4d2a8-d7b9-446f-adbc-c6c79b395333}, !- Handle
  Correlation,                            !- Calculation Method
  ,                                       !- Temperature Schedule Name
  10.8,                                   !- Annual Average Outdoor Air Temperature {C}
  23.2;                                   !- Maximum Difference In Monthly Average Outdoor Air Temperatures {deltaC}

OS:Building,
  {9aad852d-4dfa-45de-9c7c-a583fd4e0e68}, !- Handle
  90.1-2007|MediumOffice,                 !- Name
  ,                                       !- Building Sector Type
  ,                                       !- North Axis {deg}
  ,                                       !- Nominal Floor to Floor Height {m}
  ,                                       !- Space Type Name
  {97e1d279-0ce0-43db-bcf6-e04278bf09a1}, !- Default Construction Set Name
  ,                                       !- Default Schedule Set Name
  ,                                       !- Standards Number of Stories
  ,                                       !- Standards Number of Above Ground Stories
  ,                                       !- Standards Template
  Office;                                 !- Standards Building Type

OS:SpaceType,
  {95013684-05f3-453d-8c35-f4bb670cd438}, !- Handle
  Office WholeBuilding - Md Office - 90.1-2007, !- Name
  ,                                       !- Default Construction Set Name
  {21e21c77-4b67-49a7-9c5d-8ed8864935a9}, !- Default Schedule Set Name
  {67d307f8-484a-4b38-a51b-1d45a5a57b16}, !- Group Rendering Name
  {cf991f8a-52f0-47dc-acff-939c2f281510}, !- Design Specification Outdoor Air Object Name
  ,                                       !- Standards Template
  Office,                                 !- Standards Building Type
  WholeBuilding - Md Office;              !- Standards Space Type

OS:Rendering:Color,
  {67d307f8-484a-4b38-a51b-1d45a5a57b16}, !- Handle
  Office WholeBuilding - Md Office,       !- Name
  120,                                    !- Rendering Red Value
  230,                                    !- Rendering Green Value
  199;                                    !- Rendering Blue Value

OS:BuildingStory,
  {5a29b7b3-d043-43f2-bc4b-b0af148ee896}, !- Handle
  Story Ground,                           !- Name
  0,                                      !- Nominal Z Coordinate {m}
  3.9624,                                 !- Nominal Floor to Floor Height {m}
  ,                                       !- Default Construction Set Name
  ,                                       !- Default Schedule Set Name
  {b048f87a-08b1-47d7-a17e-fc6c1db10a35}; !- Group Rendering Name

OS:Space,
  {806180e6-3915-42a2-bb50-01549429c322}, !- Handle
  Office WholeBuilding - Md Office A end_a - Story Ground, !- Name
  {95013684-05f3-453d-8c35-f4bb670cd438}, !- Space Type Name
  ,                                       !- Default Construction Set Name
  ,                                       !- Default Schedule Set Name
  -0,                                     !- Direction of Relative North {deg}
  -18.6651118400078,                      !- X Origin {m}
  -12.4434078933385,                      !- Y Origin {m}
  0,                                      !- Z Origin {m}
  {5a29b7b3-d043-43f2-bc4b-b0af148ee896}, !- Building Story Name
  {817c5b53-39c5-443c-b1f5-5c8362d90bcc}; !- Thermal Zone Name

OS:Surface,
  {29c673d8-1436-4ada-b151-0b04198bb536}, !- Handle
  Surface 1,                              !- Name
  Floor,                                  !- Surface Type
  ,                                       !- Construction Name
  {806180e6-3915-42a2-bb50-01549429c322}, !- Space Name
  Ground,                                 !- Outside Boundary Condition
  ,                                       !- Outside Boundary Condition Object
  NoSun,                                  !- Sun Exposure
  NoWind,                                 !- Wind Exposure
  ,                                       !- View Factor to Ground
  ,                                       !- Number of Vertices
  1.77635683940025e-14, 4.44089209850063e-14, 0, !- X,Y,Z Vertex 1 {m}
  1.77635683940025e-14, 4.57200000000001, 0, !- X,Y,Z Vertex 2 {m}
  4.57200000000002, 4.57200000000001, 0,  !- X,Y,Z Vertex 3 {m}
  4.57200000000002, 4.44089209850063e-14, 0; !- X,Y,Z Vertex 4 {m}

OS:Surface,
  {e1e51630-4523-46d1-8915-c46aa013c635}, !- Handle
  Surface 2,                              !- Name
  Wall,                                   !- Surface Type
  ,                                       !- Construction Name
  {806180e6-3915-42a2-bb50-01549429c322}, !- Space Name
  Outdoors,                               !- Outside Boundary Condition
  ,                                       !- Outside Boundary Condition Object
  SunExposed,                             !- Sun Exposure
  WindExposed,                            !- Wind Exposure
  ,                                       !- View Factor to Ground
  ,                                       !- Number of Vertices
  1.77635683940025e-14, 4.57200000000001, 3.9624, !- X,Y,Z Vertex 1 {m}
  1.77635683940025e-14, 4.57200000000001, 0, !- X,Y,Z Vertex 2 {m}
  1.77635683940025e-14, 4.44089209850063e-14, 0, !- X,Y,Z Vertex 3 {m}
  1.77635683940025e-14, 4.44089209850063e-14, 3.9624; !- X,Y,Z Vertex 4 {m}

OS:Surface,
  {16a8ffc8-4dc2-41ae-8137-41244cc252fa}, !- Handle
  Surface 3,                              !- Name
  Wall,                                   !- Surface Type
  ,                                       !- Construction Name
  {806180e6-3915-42a2-bb50-01549429c322}, !- Space Name
  Surface,                                !- Outside Boundary Condition
  {d3b07e12-e268-4d35-b20f-985546cd5ffd}, !- Outside Boundary Condition Object
  NoSun,                                  !- Sun Exposure
  NoWind,                                 !- Wind Exposure
  ,                                       !- View Factor to Ground
  ,                                       !- Number of Vertices
  4.57200000000002, 4.57200000000001, 3.9624, !- X,Y,Z Vertex 1 {m}
  4.57200000000002, 4.57200000000001, 0,  !- X,Y,Z Vertex 2 {m}
  1.77635683940025e-14, 4.57200000000001, 0, !- X,Y,Z Vertex 3 {m}
  1.77635683940025e-14, 4.57200000000001, 3.9624; !- X,Y,Z Vertex 4 {m}

OS:Surface,
  {2ec1936a-272f-421a-9777-0828eaaaebcd}, !- Handle
  Surface 4,                              !- Name
  Wall,                                   !- Surface Type
  ,                                       !- Construction Name
  {806180e6-3915-42a2-bb50-01549429c322}, !- Space Name
  Surface,                                !- Outside Boundary Condition
  {b55a32fc-91e9-4e36-9884-062ad3f4d0ec}, !- Outside Boundary Condition Object
  NoSun,                                  !- Sun Exposure
  NoWind,                                 !- Wind Exposure
  ,                                       !- View Factor to Ground
  ,                                       !- Number of Vertices
  4.57200000000002, 4.44089209850063e-14, 3.9624, !- X,Y,Z Vertex 1 {m}
  4.57200000000002, 4.44089209850063e-14, 0, !- X,Y,Z Vertex 2 {m}
  4.57200000000002, 4.57200000000001, 0,  !- X,Y,Z Vertex 3 {m}
  4.57200000000002, 4.57200000000001, 3.9624; !- X,Y,Z Vertex 4 {m}

OS:Surface,
  {d0dfa7c1-c311-43b1-8a2e-ffe4d61f9721}, !- Handle
  Surface 5,                              !- Name
  Wall,                                   !- Surface Type
  ,                                       !- Construction Name
  {806180e6-3915-42a2-bb50-01549429c322}, !- Space Name
  Outdoors,                               !- Outside Boundary Condition
  ,                                       !- Outside Boundary Condition Object
  SunExposed,                             !- Sun Exposure
  WindExposed,                            !- Wind Exposure
  ,                                       !- View Factor to Ground
  ,                                       !- Number of Vertices
  1.77635683940025e-14, 4.44089209850063e-14, 3.9624, !- X,Y,Z Vertex 1 {m}
  1.77635683940025e-14, 4.44089209850063e-14, 0, !- X,Y,Z Vertex 2 {m}
  4.57200000000002, 4.44089209850063e-14, 0, !- X,Y,Z Vertex 3 {m}
  4.57200000000002, 4.44089209850063e-14, 3.9624; !- X,Y,Z Vertex 4 {m}

OS:Surface,
  {bb69fea9-c51b-4829-90f3-aeb2d40f29f9}, !- Handle
  Surface 6,                              !- Name
  RoofCeiling,                            !- Surface Type
  ,                                       !- Construction Name
  {806180e6-3915-42a2-bb50-01549429c322}, !- Space Name
  Outdoors,                               !- Outside Boundary Condition
  ,                                       !- Outside Boundary Condition Object
  SunExposed,                             !- Sun Exposure
  WindExposed,                            !- Wind Exposure
  ,                                       !- View Factor to Ground
  ,                                       !- Number of Vertices
  4.57200000000002, 4.44089209850063e-14, 3.9624, !- X,Y,Z Vertex 1 {m}
  4.57200000000002, 4.57200000000001, 3.9624, !- X,Y,Z Vertex 2 {m}
  1.77635683940025e-14, 4.57200000000001, 3.9624, !- X,Y,Z Vertex 3 {m}
  1.77635683940025e-14, 4.44089209850063e-14, 3.9624; !- X,Y,Z Vertex 4 {m}

OS:ThermalZone,
  {817c5b53-39c5-443c-b1f5-5c8362d90bcc}, !- Handle
  Zone Office WholeBuilding - Md Office A end_a - Story Ground, !- Name
  1,                                      !- Multiplier
  ,                                       !- Ceiling Height {m}
  ,                                       !- Volume {m3}
  ,                                       !- Floor Area {m2}
  ,                                       !- Zone Inside Convection Algorithm
  ,                                       !- Zone Outside Convection Algorithm
  ,                                       !- Zone Conditioning Equipment List Name
  {15bebce3-a5b7-4bdc-9567-a5a817863b83}, !- Zone Air Inlet Port List
  {dca88e63-f040-4aa6-9514-81924fcce5ab}, !- Zone Air Exhaust Port List
  {29350690-a6fc-4129-8044-44814988d8c5}, !- Zone Air Node Name
  {db9440ec-7e4c-483c-8274-ff93a691c982}, !- Zone Return Air Port List
  ,                                       !- Primary Daylighting Control Name
  ,                                       !- Fraction of Zone Controlled by Primary Daylighting Control
  ,                                       !- Secondary Daylighting Control Name
  ,                                       !- Fraction of Zone Controlled by Secondary Daylighting Control
  ,                                       !- Illuminance Map Name
  {aa6a3136-2736-4f2e-a4f5-14473feec42e}, !- Group Rendering Name
  {1b4d2b69-0aee-44f1-88bd-22ee46c6d284}, !- Thermostat Name
  No;                                     !- Use Ideal Air Loads

OS:Node,
  {10796f45-b593-4724-9244-73a5314e8fbf}, !- Handle
  Zone Office WholeBuilding - Md Office A end_a - Story Ground Zone Air Node, !- Name
  {29350690-a6fc-4129-8044-44814988d8c5}, !- Inlet Port
  ;                                       !- Outlet Port

OS:Connection,
  {29350690-a6fc-4129-8044-44814988d8c5}, !- Handle
  {9e452ab2-a88f-4ff1-8b02-ffbf09753902}, !- Name
  {817c5b53-39c5-443c-b1f5-5c8362d90bcc}, !- Source Object
  11,                                     !- Outlet Port
  {10796f45-b593-4724-9244-73a5314e8fbf}, !- Target Object
  2;                                      !- Inlet Port

OS:PortList,
  {15bebce3-a5b7-4bdc-9567-a5a817863b83}, !- Handle
  {28b37041-2f80-46f8-9bfa-b3f4d1963223}, !- Name
  {817c5b53-39c5-443c-b1f5-5c8362d90bcc}, !- HVAC Component
  {48e63373-d57c-47c2-8c17-76cdc75e4d9d}; !- Port 1

OS:PortList,
  {dca88e63-f040-4aa6-9514-81924fcce5ab}, !- Handle
  {5bf3008c-359d-4fa9-a9f1-428ae6ed6c0d}, !- Name
  {817c5b53-39c5-443c-b1f5-5c8362d90bcc}; !- HVAC Component

OS:PortList,
  {db9440ec-7e4c-483c-8274-ff93a691c982}, !- Handle
  {949c49bf-50b0-4bbe-be8b-226b3cb599b6}, !- Name
  {817c5b53-39c5-443c-b1f5-5c8362d90bcc}, !- HVAC Component
  {c921bfb4-5b65-4444-8cc4-bf1c043fe4d7}; !- Port 1

OS:Sizing:Zone,
  {54bcdb83-d479-4ad4-8fbf-330de8857597}, !- Handle
  {817c5b53-39c5-443c-b1f5-5c8362d90bcc}, !- Zone or ZoneList Name
  SupplyAirTemperature,                   !- Zone Cooling Design Supply Air Temperature Input Method
  12.7777777777778,                       !- Zone Cooling Design Supply Air Temperature {C}
  11.11,                                  !- Zone Cooling Design Supply Air Temperature Difference {deltaC}
  SupplyAirTemperature,                   !- Zone Heating Design Supply Air Temperature Input Method
  50.0000000000001,                       !- Zone Heating Design Supply Air Temperature {C}
  11.11,                                  !- Zone Heating Design Supply Air Temperature Difference {deltaC}
  0.0085,                                 !- Zone Cooling Design Supply Air Humidity Ratio {kg-H2O/kg-air}
  0.008,                                  !- Zone Heating Design Supply Air Humidity Ratio {kg-H2O/kg-air}
  ,                                       !- Zone Heating Sizing Factor
  ,                                       !- Zone Cooling Sizing Factor
  DesignDay,                              !- Cooling Design Air Flow Method
  ,                                       !- Cooling Design Air Flow Rate {m3/s}
  ,                                       !- Cooling Minimum Air Flow per Zone Floor Area {m3/s-m2}
  ,                                       !- Cooling Minimum Air Flow {m3/s}
  ,                                       !- Cooling Minimum Air Flow Fraction
  DesignDay,                              !- Heating Design Air Flow Method
  ,                                       !- Heating Design Air Flow Rate {m3/s}
  ,                                       !- Heating Maximum Air Flow per Zone Floor Area {m3/s-m2}
  ,                                       !- Heating Maximum Air Flow {m3/s}
  ,                                       !- Heating Maximum Air Flow Fraction
  No,                                     !- Account for Dedicated Outdoor Air System
  NeutralSupplyAir,                       !- Dedicated Outdoor Air System Control Strategy
  autosize,                               !- Dedicated Outdoor Air Low Setpoint Temperature for Design {C}
  autosize;                               !- Dedicated Outdoor Air High Setpoint Temperature for Design {C}

OS:ZoneHVAC:EquipmentList,
  {7a3b269c-d751-4009-902e-f16fe490bd6d}, !- Handle
  Zone Office WholeBuilding - Md Office A end_a - Story Ground Zone HVAC Equipment List, !- Name
  {817c5b53-39c5-443c-b1f5-5c8362d90bcc}, !- Thermal Zone
  ,                                       !- Load Distribution Scheme
  {dbf67787-15a9-4497-aaf0-f368c10d3503}, !- Zone Equipment 1
  1,                                      !- Zone Equipment Cooling Sequence 1
  1,                                      !- Zone Equipment Heating or No-Load Sequence 1
  ,                                       !- Zone Equipment Sequential Cooling Fraction Schedule Name 1
  ;                                       !- Zone Equipment Sequential Heating Fraction Schedule Name 1

OS:Space,
  {caad295c-af75-46b8-ae01-9512efbb3a30}, !- Handle
  Office WholeBuilding - Md Office B end_a - Story Ground, !- Name
  {95013684-05f3-453d-8c35-f4bb670cd438}, !- Space Type Name
  ,                                       !- Default Construction Set Name
  ,                                       !- Default Schedule Set Name
  -0,                                     !- Direction of Relative North {deg}
  -18.6651118400078,                      !- X Origin {m}
  -7.87140789333854,                      !- Y Origin {m}
  0,                                      !- Z Origin {m}
  {5a29b7b3-d043-43f2-bc4b-b0af148ee896}, !- Building Story Name
  {0598e175-ac28-416f-a28e-614222afa965}; !- Thermal Zone Name

OS:Surface,
  {78c6c57f-32b6-48b4-876e-12c7445f0a15}, !- Handle
  Surface 7,                              !- Name
  Floor,                                  !- Surface Type
  ,                                       !- Construction Name
  {caad295c-af75-46b8-ae01-9512efbb3a30}, !- Space Name
  Ground,                                 !- Outside Boundary Condition
  ,                                       !- Outside Boundary Condition Object
  NoSun,                                  !- Sun Exposure
  NoWind,                                 !- Wind Exposure
  ,                                       !- View Factor to Ground
  ,                                       !- Number of Vertices
  1.77635683940025e-14, 5.32907051820075e-15, 0, !- X,Y,Z Vertex 1 {m}
  1.77635683940025e-14, 15.7428157866771, 0, !- X,Y,Z Vertex 2 {m}
  4.57200000000002, 15.7428157866771, 0,  !- X,Y,Z Vertex 3 {m}
  4.57200000000002, 5.32907051820075e-15, 0; !- X,Y,Z Vertex 4 {m}

OS:Surface,
  {ccfd4932-1add-4a68-bc20-221668099242}, !- Handle
  Surface 8,                              !- Name
  Wall,                                   !- Surface Type
  ,                                       !- Construction Name
  {caad295c-af75-46b8-ae01-9512efbb3a30}, !- Space Name
  Outdoors,                               !- Outside Boundary Condition
  ,                                       !- Outside Boundary Condition Object
  SunExposed,                             !- Sun Exposure
  WindExposed,                            !- Wind Exposure
  ,                                       !- View Factor to Ground
  ,                                       !- Number of Vertices
  1.77635683940025e-14, 15.7428157866771, 3.9624, !- X,Y,Z Vertex 1 {m}
  1.77635683940025e-14, 15.7428157866771, 0, !- X,Y,Z Vertex 2 {m}
  1.77635683940025e-14, 5.32907051820075e-15, 0, !- X,Y,Z Vertex 3 {m}
  1.77635683940025e-14, 5.32907051820075e-15, 3.9624; !- X,Y,Z Vertex 4 {m}

OS:Surface,
  {625f45d4-4666-4e3d-82ca-e8d55d5c2958}, !- Handle
  Surface 9,                              !- Name
  Wall,                                   !- Surface Type
  ,                                       !- Construction Name
  {caad295c-af75-46b8-ae01-9512efbb3a30}, !- Space Name
  Surface,                                !- Outside Boundary Condition
  {1be1aea0-0624-4025-be56-9b908c75127f}, !- Outside Boundary Condition Object
  NoSun,                                  !- Sun Exposure
  NoWind,                                 !- Wind Exposure
  ,                                       !- View Factor to Ground
  ,                                       !- Number of Vertices
  4.57200000000002, 15.7428157866771, 3.9624, !- X,Y,Z Vertex 1 {m}
  4.57200000000002, 15.7428157866771, 0,  !- X,Y,Z Vertex 2 {m}
  1.77635683940025e-14, 15.7428157866771, 0, !- X,Y,Z Vertex 3 {m}
  1.77635683940025e-14, 15.7428157866771, 3.9624; !- X,Y,Z Vertex 4 {m}

OS:Surface,
  {e448b7d3-0ca0-4ac7-be62-1b1933a0eb09}, !- Handle
  Surface 10,                             !- Name
  Wall,                                   !- Surface Type
  ,                                       !- Construction Name
  {caad295c-af75-46b8-ae01-9512efbb3a30}, !- Space Name
  Surface,                                !- Outside Boundary Condition
  {c7b1ddde-bd7d-4bd3-936e-3000d1b2ed6e}, !- Outside Boundary Condition Object
  NoSun,                                  !- Sun Exposure
  NoWind,                                 !- Wind Exposure
  ,                                       !- View Factor to Ground
  ,                                       !- Number of Vertices
  4.57200000000002, 5.32907051820075e-15, 3.9624, !- X,Y,Z Vertex 1 {m}
  4.57200000000002, 5.32907051820075e-15, 0, !- X,Y,Z Vertex 2 {m}
  4.57200000000002, 15.7428157866771, 0,  !- X,Y,Z Vertex 3 {m}
  4.57200000000002, 15.7428157866771, 3.9624; !- X,Y,Z Vertex 4 {m}

OS:Surface,
  {d3b07e12-e268-4d35-b20f-985546cd5ffd}, !- Handle
  Surface 11,                             !- Name
  Wall,                                   !- Surface Type
  ,                                       !- Construction Name
  {caad295c-af75-46b8-ae01-9512efbb3a30}, !- Space Name
  Surface,                                !- Outside Boundary Condition
  {16a8ffc8-4dc2-41ae-8137-41244cc252fa}, !- Outside Boundary Condition Object
  NoSun,                                  !- Sun Exposure
  NoWind,                                 !- Wind Exposure
  ,                                       !- View Factor to Ground
  ,                                       !- Number of Vertices
  1.77635683940025e-14, 5.32907051820075e-15, 3.9624, !- X,Y,Z Vertex 1 {m}
  1.77635683940025e-14, 5.32907051820075e-15, 0, !- X,Y,Z Vertex 2 {m}
  4.57200000000002, 5.32907051820075e-15, 0, !- X,Y,Z Vertex 3 {m}
  4.57200000000002, 5.32907051820075e-15, 3.9624; !- X,Y,Z Vertex 4 {m}

OS:Surface,
  {9b5fa504-2243-44af-9fd9-33079dab9a56}, !- Handle
  Surface 12,                             !- Name
  RoofCeiling,                            !- Surface Type
  ,                                       !- Construction Name
  {caad295c-af75-46b8-ae01-9512efbb3a30}, !- Space Name
  Outdoors,                               !- Outside Boundary Condition
  ,                                       !- Outside Boundary Condition Object
  SunExposed,                             !- Sun Exposure
  WindExposed,                            !- Wind Exposure
  ,                                       !- View Factor to Ground
  ,                                       !- Number of Vertices
  4.57200000000002, 5.32907051820075e-15, 3.9624, !- X,Y,Z Vertex 1 {m}
  4.57200000000002, 15.7428157866771, 3.9624, !- X,Y,Z Vertex 2 {m}
  1.77635683940025e-14, 15.7428157866771, 3.9624, !- X,Y,Z Vertex 3 {m}
  1.77635683940025e-14, 5.32907051820075e-15, 3.9624; !- X,Y,Z Vertex 4 {m}

OS:ThermalZone,
  {0598e175-ac28-416f-a28e-614222afa965}, !- Handle
  Zone Office WholeBuilding - Md Office B end_a - Story Ground, !- Name
  1,                                      !- Multiplier
  ,                                       !- Ceiling Height {m}
  ,                                       !- Volume {m3}
  ,                                       !- Floor Area {m2}
  ,                                       !- Zone Inside Convection Algorithm
  ,                                       !- Zone Outside Convection Algorithm
  ,                                       !- Zone Conditioning Equipment List Name
  {7db14709-d6d5-4048-a1f2-873d80f7e248}, !- Zone Air Inlet Port List
  {90b5e102-8f24-499d-a59f-066c1fd1d96f}, !- Zone Air Exhaust Port List
  {050d8f40-2482-49a6-aa47-ebe4948833b0}, !- Zone Air Node Name
  {f8f950d9-787c-4930-92d9-852eed1a8136}, !- Zone Return Air Port List
  ,                                       !- Primary Daylighting Control Name
  ,                                       !- Fraction of Zone Controlled by Primary Daylighting Control
  ,                                       !- Secondary Daylighting Control Name
  ,                                       !- Fraction of Zone Controlled by Secondary Daylighting Control
  ,                                       !- Illuminance Map Name
  {df39654f-66c9-45d8-b687-26c3ddaffe6e}, !- Group Rendering Name
  {5e90f0a3-4479-47b8-b69e-d51a7962846e}, !- Thermostat Name
  No;                                     !- Use Ideal Air Loads

OS:Node,
  {3822b96c-7a49-47ef-8c9f-bf62e0df4d0e}, !- Handle
  Zone Office WholeBuilding - Md Office B end_a - Story Ground Zone Air Node, !- Name
  {050d8f40-2482-49a6-aa47-ebe4948833b0}, !- Inlet Port
  ;                                       !- Outlet Port

OS:Connection,
  {050d8f40-2482-49a6-aa47-ebe4948833b0}, !- Handle
  {a9103063-1026-4cb5-9e53-06d7d5781e6a}, !- Name
  {0598e175-ac28-416f-a28e-614222afa965}, !- Source Object
  11,                                     !- Outlet Port
  {3822b96c-7a49-47ef-8c9f-bf62e0df4d0e}, !- Target Object
  2;                                      !- Inlet Port

OS:PortList,
  {7db14709-d6d5-4048-a1f2-873d80f7e248}, !- Handle
  {c9f8f296-c5e3-4709-924c-6dd69202eacd}, !- Name
  {0598e175-ac28-416f-a28e-614222afa965}, !- HVAC Component
  {63f03ebb-bcb6-4c74-8d14-02a0bd97d34a}; !- Port 1

OS:PortList,
  {90b5e102-8f24-499d-a59f-066c1fd1d96f}, !- Handle
  {17e1dda3-1af6-4ebd-96d2-3988a1114e9c}, !- Name
  {0598e175-ac28-416f-a28e-614222afa965}; !- HVAC Component

OS:PortList,
  {f8f950d9-787c-4930-92d9-852eed1a8136}, !- Handle
  {3edf0cd5-310a-4ce3-abb6-cddf052a1e59}, !- Name