
OS:Version,
  {9342e8b0-afae-41d8-8295-6e1f7c1b90a5}, !- Handle
  1.13.0;                                 !- Version Identifier

OS:Site,
  {6ed3a6ed-f4e5-48e4-9e58-c2c8137590b1}, !- Handle
  Site 1,                                 !- Name
  ,                                       !- Latitude {deg}
  ,                                       !- Longitude {deg}
  ,                                       !- Time Zone {hr}
  ,                                       !- Elevation {m}
  ;                                       !- Terrain

OS:YearDescription,
  {58517d39-eb65-4754-bc04-39a9a46abf6b}; !- Handle

OS:ClimateZones,
  {e3a05d99-26cb-4ec8-bbae-a20163cd7d89}, !- Handle
  ,                                       !- Active Institution
  ,                                       !- Active Year
  ASHRAE,                                 !- Climate Zone Institution Name 1
  ANSI/ASHRAE Standard 169,               !- Climate Zone Document Name 1
  2006,                                   !- Climate Zone Document Year 1
  ,                                       !- Climate Zone Value 1
  CEC,                                    !- Climate Zone Institution Name 2
  California Climate Zone Descriptions,   !- Climate Zone Document Name 2
  1995,                                   !- Climate Zone Document Year 2
  ;                                       !- Climate Zone Value 2

OS:Building,
  {f9bdd89a-c860-4e01-b5e0-9e1afec55626}, !- Handle
  Building 1,                             !- Name
  ,                                       !- Building Sector Type
  ,                                       !- North Axis {deg}
  ,                                       !- Nominal Floor to Floor Height {m}
  ,                                       !- Space Type Name
  ,                                       !- Default Construction Set Name
  ;                                       !- Default Schedule Set Name

OS:Facility,
  {7c0c1905-c3c9-4dde-987f-1ce62219529e}; !- Handle

OS:SimulationControl,
  {83a1450f-267b-4154-a9aa-db97887728eb}; !- Handle

OS:Sizing:Parameters,
  {6160d854-ad1c-413e-98d9-425d0801cc48}, !- Handle
  1.25,                                   !- Heating Sizing Factor
  1.15;                                   !- Cooling Sizing Factor

OS:Timestep,
  {b2a1d1e3-2e20-4d5e-b165-ae03b3c11ad9}, !- Handle
  6;                                      !- Number of Timesteps per Hour

OS:ShadowCalculation,
  {b671ddf4-8386-4dcd-91d3-9afe869d59b8}, !- Handle
  20,                                     !- Calculation Frequency
  15000;                                  !- Maximum Figures in Shadow Overlap Calculations

OS:HeatBalanceAlgorithm,
  {81770d9a-6dea-4aad-bafd-c7d9179992c8}, !- Handle
  ConductionTransferFunction,             !- Algorithm
  200;                                    !- Surface Temperature Upper Limit {C}

OS:RunPeriod,
  {6d0365d9-4285-41ad-ba8a-bbe7b21836a7}, !- Handle
  Run Period 1,                           !- Name
  1,                                      !- Begin Month
  1,                                      !- Begin Day of Month
  12,                                     !- End Month
  31,                                     !- End Day of Month
  ,                                       !- Use Weather File Holidays and Special Days
  ,                                       !- Use Weather File Daylight Saving Period
  ,                                       !- Apply Weekend Holiday Rule
  ,                                       !- Use Weather File Rain Indicators
  ,                                       !- Use Weather File Snow Indicators
  ;                                       !- Number of Times Runperiod to be Repeated

OS:LifeCycleCost:Parameters,
  {7cb17cc0-3b9b-4868-aaf1-36e779ed3a9a}, !- Handle
  ,                                       !- Analysis Type
  ,                                       !- Discounting Convention
  ,                                       !- Inflation Approach
  ,                                       !- Real Discount Rate
  ,                                       !- Nominal Discount Rate
  ,                                       !- Inflation
  ,                                       !- Base Date Month
  ,                                       !- Base Date Year
  ,                                       !- Service Date Month
  ,                                       !- Service Date Year
  ;                                       !- Length of Study Period in Years

OS:BuildingStory,
  {ffd95947-e27b-44d2-8687-06be8968736f}, !- Handle
  Story 1,                                !- Name
  0,                                      !- Nominal Z Coordinate {m}
  3.048,                                  !- Nominal Floor to Floor Height {m}
  ,                                       !- Default Construction Set Name
  ,                                       !- Default Schedule Set Name
  {2e626153-20ab-42c4-970f-b3825d705db3}; !- Group Rendering Name

OS:Space,
  {8a6dab53-7a32-4b81-88cb-37a7ee3f0635}, !- Handle
  Story 1 West Perimeter Space,           !- Name
  ,                                       !- Space Type Name
  ,                                       !- Default Construction Set Name
  ,                                       !- Default Schedule Set Name
  -0,                                     !- Direction of Relative North {deg}
  0,                                      !- X Origin {m}
  0,                                      !- Y Origin {m}
  0,                                      !- Z Origin {m}
  {ffd95947-e27b-44d2-8687-06be8968736f}, !- Building Story Name
  {910ca7bb-5e09-4147-a049-04ddd2c1f413}; !- Thermal Zone Name

OS:Surface,
  {f284bd14-8dde-46cc-8b2a-ebfc7a0db53a}, !- Handle
  Surface 1,                              !- Name
  Floor,                                  !- Surface Type
  ,                                       !- Construction Name
  {8a6dab53-7a32-4b81-88cb-37a7ee3f0635}, !- Space Name
  Ground,                                 !- Outside Boundary Condition
  ,                                       !- Outside Boundary Condition Object
  NoSun,                                  !- Sun Exposure
  NoWind,                                 !- Wind Exposure
  ,                                       !- View Factor to Ground
  ,                                       !- Number of Vertices
  0, 0, 0,                                !- X,Y,Z Vertex 1 {m}
  0, 15.24, 0,                            !- X,Y,Z Vertex 2 {m}
  4.57, 10.67, 0,                         !- X,Y,Z Vertex 3 {m}
  4.57, 4.57, 0;                          !- X,Y,Z Vertex 4 {m}

OS:Surface,
  {a3e3399a-5232-4c92-a1e7-15510eefb328}, !- Handle
  Surface 2,                              !- Name
  Wall,                                   !- Surface Type
  ,                                       !- Construction Name
  {8a6dab53-7a32-4b81-88cb-37a7ee3f0635}, !- Space Name
  Outdoors,                               !- Outside Boundary Condition
  ,                                       !- Outside Boundary Condition Object
  SunExposed,                             !- Sun Exposure
  WindExposed,                            !- Wind Exposure
  ,                                       !- View Factor to Ground
  ,                                       !- Number of Vertices
  0, 15.24, 3.048,                        !- X,Y,Z Vertex 1 {m}
  0, 15.24, 0,                            !- X,Y,Z Vertex 2 {m}
  0, 0, 0,                                !- X,Y,Z Vertex 3 {m}
  0, 0, 3.048;                            !- X,Y,Z Vertex 4 {m}

OS:Surface,
  {b92783a9-17c7-477d-9640-430651070f69}, !- Handle
  Surface 3,                              !- Name
  Wall,                                   !- Surface Type
  ,                                       !- Construction Name
  {8a6dab53-7a32-4b81-88cb-37a7ee3f0635}, !- Space Name
  Surface,                                !- Outside Boundary Condition
  {71b9464b-243d-4dc2-ba91-09d8ac2929d2}, !- Outside Boundary Condition Object
  NoSun,                                  !- Sun Exposure
  NoWind,                                 !- Wind Exposure
  ,                                       !- View Factor to Ground
  ,                                       !- Number of Vertices
  4.57, 10.67, 3.048,                     !- X,Y,Z Vertex 1 {m}
  4.57, 10.67, 0,                         !- X,Y,Z Vertex 2 {m}
  0, 15.24, 0,                            !- X,Y,Z Vertex 3 {m}
  0, 15.24, 3.048;                        !- X,Y,Z Vertex 4 {m}

OS:Surface,
  {03dc7457-a71d-4579-881c-f4fba654995c}, !- Handle
  Surface 4,                              !- Name
  Wall,                                   !- Surface Type
  ,                                       !- Construction Name
  {8a6dab53-7a32-4b81-88cb-37a7ee3f0635}, !- Space Name
  Surface,                                !- Outside Boundary Condition
  {0b5926c0-2d70-4aa2-9201-5c1de15bbe59}, !- Outside Boundary Condition Object
  NoSun,                                  !- Sun Exposure
  NoWind,                                 !- Wind Exposure
  ,                                       !- View Factor to Ground
  ,                                       !- Number of Vertices
  4.57, 4.57, 3.048,                      !- X,Y,Z Vertex 1 {m}
  4.57, 4.57, 0,                          !- X,Y,Z Vertex 2 {m}
  4.57, 10.67, 0,                         !- X,Y,Z Vertex 3 {m}
  4.57, 10.67, 3.048;                     !- X,Y,Z Vertex 4 {m}

OS:Surface,
  {40fc2e58-b105-4f6c-9ced-9d1413ca4cf4}, !- Handle
  Surface 5,                              !- Name
  Wall,                                   !- Surface Type
  ,                                       !- Construction Name
  {8a6dab53-7a32-4b81-88cb-37a7ee3f0635}, !- Space Name
  Surface,                                !- Outside Boundary Condition
  {a4bbc8bb-fea8-4ece-9d73-4956fe16cf2d}, !- Outside Boundary Condition Object
  NoSun,                                  !- Sun Exposure
  NoWind,                                 !- Wind Exposure
  ,                                       !- View Factor to Ground
  ,                                       !- Number of Vertices
  0, 0, 3.048,                            !- X,Y,Z Vertex 1 {m}
  0, 0, 0,                                !- X,Y,Z Vertex 2 {m}
  4.57, 4.57, 0,                          !- X,Y,Z Vertex 3 {m}
  4.57, 4.57, 3.048;                      !- X,Y,Z Vertex 4 {m}

OS:Surface,
  {d1a7f246-a74f-49f2-bfd9-14bf1cfbb18b}, !- Handle
  Surface 6,                              !- Name
  RoofCeiling,                            !- Surface Type
  ,                                       !- Construction Name
  {8a6dab53-7a32-4b81-88cb-37a7ee3f0635}, !- Space Name
  Surface,                                !- Outside Boundary Condition
  {9ec76418-a75c-4b90-b439-4ee58d2b28cf}, !- Outside Boundary Condition Object
  NoSun,                                  !- Sun Exposure
  NoWind,                                 !- Wind Exposure
  ,                                       !- View Factor to Ground
  ,                                       !- Number of Vertices
  4.57, 4.57, 3.048,                      !- X,Y,Z Vertex 1 {m}
  4.57, 10.67, 3.048,                     !- X,Y,Z Vertex 2 {m}
  0, 15.24, 3.048,                        !- X,Y,Z Vertex 3 {m}
  0, 0, 3.048;                            !- X,Y,Z Vertex 4 {m}

OS:Space,
  {5062ba08-e607-47d2-bbd0-b609e607250c}, !- Handle
  Story 1 North Perimeter Space,          !- Name
  ,                                       !- Space Type Name
  ,                                       !- Default Construction Set Name
  ,                                       !- Default Schedule Set Name
  -0,                                     !- Direction of Relative North {deg}
  4.57,                                   !- X Origin {m}
  10.67,                                  !- Y Origin {m}
  0,                                      !- Z Origin {m}
  {ffd95947-e27b-44d2-8687-06be8968736f}, !- Building Story Name
  {59c4170d-3c7d-4aa2-8618-167b68944f2c}; !- Thermal Zone Name

OS:Surface,
  {420c48e3-d08d-4a99-93b4-5da16d11825e}, !- Handle
  Surface 7,                              !- Name
  Floor,                                  !- Surface Type
  ,                                       !- Construction Name
  {5062ba08-e607-47d2-bbd0-b609e607250c}, !- Space Name
  Ground,                                 !- Outside Boundary Condition
  ,                                       !- Outside Boundary Condition Object
  NoSun,                                  !- Sun Exposure
  NoWind,                                 !- Wind Exposure
  ,                                       !- View Factor to Ground
  ,                                       !- Number of Vertices
  -4.57, 4.57, 0,                         !- X,Y,Z Vertex 1 {m}
  25.91, 4.57, 0,                         !- X,Y,Z Vertex 2 {m}
  21.34, 0, 0,                            !- X,Y,Z Vertex 3 {m}
  0, 0, 0;                                !- X,Y,Z Vertex 4 {m}

OS:Surface,
  {eefa3060-e75e-4396-beed-95bfe2f9d266}, !- Handle
  Surface 8,                              !- Name
  Wall,                                   !- Surface Type
  ,                                       !- Construction Name
  {5062ba08-e607-47d2-bbd0-b609e607250c}, !- Space Name
  Outdoors,                               !- Outside Boundary Condition
  ,                                       !- Outside Boundary Condition Object
  SunExposed,                             !- Sun Exposure
  WindExposed,                            !- Wind Exposure
  ,                                       !- View Factor to Ground
  ,                                       !- Number of Vertices
  25.91, 4.57, 3.048,                     !- X,Y,Z Vertex 1 {m}
  25.91, 4.57, 0,                         !- X,Y,Z Vertex 2 {m}
  -4.57, 4.57, 0,                         !- X,Y,Z Vertex 3 {m}
  -4.57, 4.57, 3.048;                     !- X,Y,Z Vertex 4 {m}

OS:Surface,
  {c48edcdd-eaa7-4e36-aa61-de2bf8014f5f}, !- Handle
  Surface 9,                              !- Name
  Wall,                                   !- Surface Type
  ,                                       !- Construction Name
  {5062ba08-e607-47d2-bbd0-b609e607250c}, !- Space Name
  Surface,                                !- Outside Boundary Condition
  {fe6e8bfe-85fd-4d84-aaf9-0837928c9d71}, !- Outside Boundary Condition Object
  NoSun,                                  !- Sun Exposure
  NoWind,                                 !- Wind Exposure
  ,                                       !- View Factor to Ground
  ,                                       !- Number of Vertices
  21.34, 0, 3.048,                        !- X,Y,Z Vertex 1 {m}
  21.34, 0, 0,                            !- X,Y,Z Vertex 2 {m}
  25.91, 4.57, 0,                         !- X,Y,Z Vertex 3 {m}
  25.91, 4.57, 3.048;                     !- X,Y,Z Vertex 4 {m}

OS:Surface,
  {0e52dc79-1b36-4610-846c-133f4a19d5c0}, !- Handle
  Surface 10,                             !- Name
  Wall,                                   !- Surface Type
  ,                                       !- Construction Name
  {5062ba08-e607-47d2-bbd0-b609e607250c}, !- Space Name
  Surface,                                !- Outside Boundary Condition
  {25805cd4-bf76-4d98-bbe1-0529ce4e2c40}, !- Outside Boundary Condition Object
  NoSun,                                  !- Sun Exposure
  NoWind,                                 !- Wind Exposure
  ,                                       !- View Factor to Ground
  ,                                       !- Number of Vertices
  0, 0, 3.048,                            !- X,Y,Z Vertex 1 {m}
  0, 0, 0,                                !- X,Y,Z Vertex 2 {m}
  21.34, 0, 0,                            !- X,Y,Z Vertex 3 {m}
  21.34, 0, 3.048;                        !- X,Y,Z Vertex 4 {m}

OS:Surface,
  {71b9464b-243d-4dc2-ba91-09d8ac2929d2}, !- Handle
  Surface 11,                             !- Name
  Wall,                                   !- Surface Type
  ,                                       !- Construction Name
  {5062ba08-e607-47d2-bbd0-b609e607250c}, !- Space Name
  Surface,                                !- Outside Boundary Condition
  {b92783a9-17c7-477d-9640-430651070f69}, !- Outside Boundary Condition Object
  NoSun,                                  !- Sun Exposure
  NoWind,                                 !- Wind Exposure
  ,                                       !- View Factor to Ground
  ,                                       !- Number of Vertices
  -4.57, 4.57, 3.048,                     !- X,Y,Z Vertex 1 {m}
  -4.57, 4.57, 0,                         !- X,Y,Z Vertex 2 {m}
  0, 0, 0,                                !- X,Y,Z Vertex 3 {m}
  0, 0, 3.048;                            !- X,Y,Z Vertex 4 {m}

OS:Surface,
  {02eb9ce9-36b4-4b7d-a050-6e044e0d9dae}, !- Handle
  Surface 12,                             !- Name
  RoofCeiling,                            !- Surface Type
  ,                                       !- Construction Name
  {5062ba08-e607-47d2-bbd0-b609e607250c}, !- Space Name
  Surface,                                !- Outside Boundary Condition
  {7b8ffd4e-076c-4be4-85f3-e3e0e115ccbf}, !- Outside Boundary Condition Object
  NoSun,                                  !- Sun Exposure
  NoWind,                                 !- Wind Exposure
  ,                                       !- View Factor to Ground
  ,                                       !- Number of Vertices
  0, 0, 3.048,                            !- X,Y,Z Vertex 1 {m}
  21.34, 0, 3.048,                        !- X,Y,Z Vertex 2 {m}
  25.91, 4.57, 3.048,                     !- X,Y,Z Vertex 3 {m}
  -4.57, 4.57, 3.048;                     !- X,Y,Z Vertex 4 {m}

OS:Space,
  {c75d7849-e746-4ae5-9737-cc75ec4fa3da}, !- Handle
  Story 1 East Perimeter Space,           !- Name
  ,                                       !- Space Type Name
  ,                                       !- Default Construction Set Name
  ,                                       !- Default Schedule Set Name
  -0,                                     !- Direction of Relative North {deg}
  25.91,                                  !- X Origin {m}
  4.57,                                   !- Y Origin {m}
  0,                                      !- Z Origin {m}
  {ffd95947-e27b-44d2-8687-06be8968736f}, !- Building Story Name
  {cf23a845-c799-4f4e-ae35-fb9340357835}; !- Thermal Zone Name

OS:Surface,
  {e84cb2bc-5318-4b45-8f9e-1ec096e50938}, !- Handle
  Surface 13,                             !- Name
  Floor,                                  !- Surface Type
  ,                                       !- Construction Name
  {c75d7849-e746-4ae5-9737-cc75ec4fa3da}, !- Space Name
  Ground,                                 !- Outside Boundary Condition
  ,                                       !- Outside Boundary Condition Object
  NoSun,                                  !- Sun Exposure
  NoWind,                                 !- Wind Exposure
  ,                                       !- View Factor to Ground
  ,                                       !- Number of Vertices
  4.57, 10.67, 0,                         !- X,Y,Z Vertex 1 {m}
  4.57, -4.57, 0,                         !- X,Y,Z Vertex 2 {m}
  -3.5527136788005e-15, 0, 0,             !- X,Y,Z Vertex 3 {m}
  -3.5527136788005e-15, 6.1, 0;           !- X,Y,Z Vertex 4 {m}

OS:Surface,
  {1e26ae88-20d6-4af4-ba6b-9445dbb04950}, !- Handle
  Surface 14,                             !- Name
  Wall,                                   !- Surface Type
  ,                                       !- Construction Name
  {c75d7849-e746-4ae5-9737-cc75ec4fa3da}, !- Space Name
  Outdoors,                               !- Outside Boundary Condition
  ,                                       !- Outside Boundary Condition Object
  SunExposed,                             !- Sun Exposure
  WindExposed,                            !- Wind Exposure
  ,                                       !- View Factor to Ground
  ,                                       !- Number of Vertices
  4.57, -4.57, 3.048,                     !- X,Y,Z Vertex 1 {m}
  4.57, -4.57, 0,                         !- X,Y,Z Vertex 2 {m}
  4.57, 10.67, 0,                         !- X,Y,Z Vertex 3 {m}
  4.57, 10.67, 3.048;                     !- X,Y,Z Vertex 4 {m}

OS:Surface,
  {49118d3b-6767-404f-9fd2-0dda3acedc78}, !- Handle
  Surface 15,                             !- Name
  Wall,                                   !- Surface Type
  ,                                       !- Construction Name
  {c75d7849-e746-4ae5-9737-cc75ec4fa3da}, !- Space Name
  Surface,                                !- Outside Boundary Condition
  {1510213b-6089-483a-9b91-be60df5ef798}, !- Outside Boundary Condition Object
  NoSun,                                  !- Sun Exposure
  NoWind,                                 !- Wind Exposure
  ,                                       !- View Factor to Ground
  ,                                       !- Number of Vertices
  -3.5527136788005e-15, 0, 3.048,         !- X,Y,Z Vertex 1 {m}
  -3.5527136788005e-15, 0, 0,             !- X,Y,Z Vertex 2 {m}
  4.57, -4.57, 0,                         !- X,Y,Z Vertex 3 {m}
  4.57, -4.57, 3.048;                     !- X,Y,Z Vertex 4 {m}

OS:Surface,
  {2a21cdab-d266-4924-a08e-4e08b2a2b972}, !- Handle
  Surface 16,                             !- Name
  Wall,                                   !- Surface Type
  ,                                       !- Construction Name
  {c75d7849-e746-4ae5-9737-cc75ec4fa3da}, !- Space Name
  Surface,                                !- Outside Boundary Condition
  {55048fdd-4f71-41ec-a551-457e5a9f0a31}, !- Outside Boundary Condition Object
  NoSun,                                  !- Sun Exposure
  NoWind,                                 !- Wind Exposure
  ,                                       !- View Factor to Ground
  ,                                       !- Number of Vertices
  -3.5527136788005e-15, 6.1, 3.048,       !- X,Y,Z Vertex 1 {m}
  -3.5527136788005e-15, 6.1, 0,           !- X,Y,Z Vertex 2 {m}
  -3.5527136788005e-15, 0, 0,             !- X,Y,Z Vertex 3 {m}
  -3.5527136788005e-15, 0, 3.048;         !- X,Y,Z Vertex 4 {m}

OS:Surface,
  {fe6e8bfe-85fd-4d84-aaf9-0837928c9d71}, !- Handle
  Surface 17,                             !- Name
  Wall,                                   !- Surface Type
  ,                                       !- Construction Name
  {c75d7849-e746-4ae5-9737-cc75ec4fa3da}, !- Space Name
  Surface,                                !- Outside Boundary Condition
  {c48edcdd-eaa7-4e36-aa61-de2bf8014f5f}, !- Outside Boundary Condition Object
  NoSun,                                  !- Sun Exposure
  NoWind,                                 !- Wind Exposure
  ,                                       !- View Factor to Ground
  ,                                       !- Number of Vertices
  4.57, 10.67, 3.048,                     !- X,Y,Z Vertex 1 {m}
  4.57, 10.67, 0,                         !- X,Y,Z Vertex 2 {m}
  -3.5527136788005e-15, 6.1, 0,           !- X,Y,Z Vertex 3 {m}
  -3.5527136788005e-15, 6.1, 3.048;       !- X,Y,Z Vertex 4 {m}

OS:Surface,
  {f7850285-c106-4a0d-8f67-e8c746fdde99}, !- Handle
  Surface 18,                             !- Name
  RoofCeiling,                            !- Surface Type
  ,                                       !- Construction Name
  {c75d7849-e746-4ae5-9737-cc75ec4fa3da}, !- Space Name
  Surface,                                !- Outside Boundary Condition
  {4774f6c4-7e71-4fee-8c65-9fd8461925ac}, !- Outside Boundary Condition Object
  NoSun,                                  !- Sun Exposure
  NoWind,                                 !- Wind Exposure
  ,                                       !- View Factor to Ground
  ,                                       !- Number of Vertices
  -3.5527136788005e-15, 6.1, 3.048,       !- X,Y,Z Vertex 1 {m}
  -3.5527136788005e-15, 0, 3.048,         !- X,Y,Z Vertex 2 {m}
  4.57, -4.57, 3.048,                     !- X,Y,Z Vertex 3 {m}
  4.57, 10.67, 3.048;                     !- X,Y,Z Vertex 4 {m}

OS:Space,
  {3ea6c541-ab9f-48a1-af86-349594b65f74}, !- Handle
  Story 1 South Perimeter Space,          !- Name
  ,                                       !- Space Type Name
  ,                                       !- Default Construction Set Name
  ,                                       !- Default Schedule Set Name
  -0,                                     !- Direction of Relative North {deg}
  0,                                      !- X Origin {m}
  0,                                      !- Y Origin {m}
  0,                                      !- Z Origin {m}
  {ffd95947-e27b-44d2-8687-06be8968736f}, !- Building Story Name
  {82dea1c9-d08d-4eb6-adb0-d2c971edc526}; !- Thermal Zone Name

OS:Surface,
  {e6489bc3-db93-4e79-9115-d7208444f349}, !- Handle
  Surface 19,                             !- Name
  Floor,                                  !- Surface Type
  ,                                       !- Construction Name
  {3ea6c541-ab9f-48a1-af86-349594b65f74}, !- Space Name
  Ground,                                 !- Outside Boundary Condition
  ,                                       !- Outside Boundary Condition Object
  NoSun,                                  !- Sun Exposure
  NoWind,                                 !- Wind Exposure
  ,                                       !- View Factor to Ground
  ,                                       !- Number of Vertices
  30.48, 0, 0,                            !- X,Y,Z Vertex 1 {m}
  0, 0, 0,                                !- X,Y,Z Vertex 2 {m}
  4.57, 4.57, 0,                          !- X,Y,Z Vertex 3 {m}
  25.91, 4.57, 0;                         !- X,Y,Z Vertex 4 {m}

OS:Surface,
  {e47ab9a2-b6ba-4e26-bf32-2ce6868623d7}, !- Handle
  Surface 20,                             !- Name
  Wall,                                   !- Surface Type
  ,                                       !- Construction Name
  {3ea6c541-ab9f-48a1-af86-349594b65f74}, !- Space Name
  Outdoors,                               !- Outside Boundary Condition
  ,                                       !- Outside Boundary Condition Object
  SunExposed,                             !- Sun Exposure
  WindExposed,                            !- Wind Exposure
  ,                                       !- View Factor to Ground
  ,                                       !- Number of Vertices
  0, 0, 3.048,                            !- X,Y,Z Vertex 1 {m}
  0, 0, 0,                                !- X,Y,Z Vertex 2 {m}
  30.48, 0, 0,                            !- X,Y,Z Vertex 3 {m}
  30.48, 0, 3.048;                        !- X,Y,Z Vertex 4 {m}

OS:Surface,
  {a4bbc8bb-fea8-4ece-9d73-4956fe16cf2d}, !- Handle
  Surface 21,                             !- Name
  Wall,                                   !- Surface Type
  ,                                       !- Construction Name
  {3ea6c541-ab9f-48a1-af86-349594b65f74}, !- Space Name
  Surface,                                !- Outside Boundary Condition
  {40fc2e58-b105-4f6c-9ced-9d1413ca4cf4}, !- Outside Boundary Condition Object
  NoSun,                                  !- Sun Exposure
  NoWind,                                 !- Wind Exposure
  ,                                       !- View Factor to Ground
  ,                                       !- Number of Vertices
  4.57, 4.57, 3.048,                      !- X,Y,Z Vertex 1 {m}
  4.57, 4.57, 0,                          !- X,Y,Z Vertex 2 {m}
  0, 0, 0,                                !- X,Y,Z Vertex 3 {m}
  0, 0, 3.048;                            !- X,Y,Z Vertex 4 {m}

OS:Surface,
  {685bfc13-b978-4ee5-a16b-e67445883cf7}, !- Handle
  Surface 22,                             !- Name
  Wall,                                   !- Surface Type
  ,                                       !- Construction Name
  {3ea6c541-ab9f-48a1-af86-349594b65f74}, !- Space Name
  Surface,                                !- Outside Boundary Condition
  {411e47f5-dc82-4ef9-b680-c01bf0036eda}, !- Outside Boundary Condition Object
  NoSun,                                  !- Sun Exposure
  NoWind,                                 !- Wind Exposure
  ,                                       !- View Factor to Ground
  ,                                       !- Number of Vertices
  25.91, 4.57, 3.048,                     !- X,Y,Z Vertex 1 {m}
  25.91, 4.57, 0,                         !- X,Y,Z Vertex 2 {m}
  4.57, 4.57, 0,                          !- X,Y,Z Vertex 3 {m}
  4.57, 4.57, 3.048;                      !- X,Y,Z Vertex 4 {m}

OS:Surface,
  {1510213b-6089-483a-9b91-be60df5ef798}, !- Handle
  Surface 23,                             !- Name
  Wall,                                   !- Surface Type
  ,                                       !- Construction Name
  {3ea6c541-ab9f-48a1-af86-349594b65f74}, !- Space Name
  Surface,                                !- Outside Boundary Condition
  {49118d3b-6767-404f-9fd2-0dda3acedc78}, !- Outside Boundary Condition Object
  NoSun,                                  !- Sun Exposure
  NoWind,                                 !- Wind Exposure
  ,                                       !- View Factor to Ground
  ,                                       !- Number of Vertices
  30.48, 0, 3.048,                        !- X,Y,Z Vertex 1 {m}
  30.48, 0, 0,                            !- X,Y,Z Vertex 2 {m}
  25.91, 4.57, 0,                         !- X,Y,Z Vertex 3 {m}
  25.91, 4.57, 3.048;                     !- X,Y,Z Vertex 4 {m}

OS:Surface,
  {244cb1a6-b540-40ac-a7d5-23288dcde84b}, !- Handle
  Surface 24,                             !- Name
  RoofCeiling,                            !- Surface Type
  ,                                       !- Construction Name
  {3ea6c541-ab9f-48a1-af86-349594b65f74}, !- Space Name
  Surface,                                !- Outside Boundary Condition
  {83d205a1-d3b8-4597-b98b-1c9ed53858c4}, !- Outside Boundary Condition Object