
OS:Version,
  {92547754-2721-4c0c-9a7a-4bc46841488a}, !- Handle
  2.4.1;                                  !- Version Identifier

OS:Site,
  {3a1edcec-3cbf-4f45-88d2-3a278ae9e394}, !- Handle
  Oak Ridge_TN_USA Design_Conditions,     !- Name
  35.96,                                  !- Latitude {deg}
  -84.29,                                 !- Longitude {deg}
  -5,                                     !- Time Zone {hr}
  334,                                    !- Elevation {m}
  Suburbs;                                !- Terrain

OS:SimulationControl,
  {f3582543-78c3-4687-b9b6-6f5e7996c5ef}, !- Handle
  Yes,                                    !- Do Zone Sizing Calculation
  Yes,                                    !- Do System Sizing Calculation
  No,                                     !- Do Plant Sizing Calculation
  No,                                     !- Run Simulation for Sizing Periods
  Yes,                                    !- Run Simulation for Weather File Run Periods
  0.04,                                   !- Loads Convergence Tolerance Value
  0.4,                                    !- Temperature Convergence Tolerance Value {deltaC}
  FullInteriorAndExterior,                !- Solar Distribution
  25,                                     !- Maximum Number of Warmup Days
  6;                                      !- Minimum Number of Warmup Days

OS:Curve:Cubic,
  {e618f795-b67f-45c1-bcd6-cacd3e49cc59}, !- Handle
  RoofTop DX Coil EIR-FF,                 !- Name
  1.0079484,                              !- Coefficient1 Constant
  0.34544129,                             !- Coefficient2 x
  -0.6922891,                             !- Coefficient3 x**2
  0.33889943,                             !- Coefficient4 x**3
  0.5,                                    !- Minimum Value of x
  1.5;                                    !- Maximum Value of x

OS:Surface,
  {107d3e82-ae1f-42f7-a2f8-4146f72ab9d5}, !- Handle
  Surface 47 Reversed,                    !- Name
  Wall,                                   !- Surface Type
  {fed622dc-87b6-42cd-afeb-209dd2b17d6c}, !- Construction Name
  {db805cf9-601d-4fc7-8722-b98c24e9488d}, !- Space Name
  Surface,                                !- Outside Boundary Condition
  {35d5de27-9631-4c01-8ae0-ece98e06b634}, !- Outside Boundary Condition Object
  NoSun,                                  !- Sun Exposure
  NoWind,                                 !- Wind Exposure
  ,                                       !- View Factor to Ground
  ,                                       !- Number of Vertices
  4.0132, 7.3152, 2.7432,                 !- X,Y,Z Vertex 1 {m}
  4.0132, 7.3152, 0,                      !- X,Y,Z Vertex 2 {m}
  0, 7.3152, 0,                           !- X,Y,Z Vertex 3 {m}
  0, 7.3152, 2.7432;                      !- X,Y,Z Vertex 4 {m}

OS:Construction,
  {fed622dc-87b6-42cd-afeb-209dd2b17d6c}, !- Handle
  INT_WALL,                               !- Name
  {f29a9687-d39c-4384-9eed-64bbcde79e58}, !- Surface Rendering Name
  {a5eebc44-a28c-4280-8fc8-77d9d5099dc8}, !- Layer 1
  {a5eebc44-a28c-4280-8fc8-77d9d5099dc8}; !- Layer 2

OS:Material,
  {a5eebc44-a28c-4280-8fc8-77d9d5099dc8}, !- Handle
  GP01 1/2 GYPSUM,                        !- Name
  Smooth,                                 !- Roughness
  0.0127,                                 !- Thickness {m}
  0.16,                                   !- Conductivity {W/m-K}
  800,                                    !- Density {kg/m3}
  1090,                                   !- Specific Heat {J/kg-K}
  0.9,                                    !- Thermal Absorptance
  0.7,                                    !- Solar Absorptance
  0.5;                                    !- Visible Absorptance

OS:ThermalZone,
  {9d56d9ef-1708-4a6d-8292-506e33031c83}, !- Handle
  Room 105 Thermal Zone,                  !- Name
  ,                                       !- Multiplier
  ,                                       !- Ceiling Height {m}
  ,                                       !- Volume {m3}
  ,                                       !- Floor Area {m2}
  ,                                       !- Zone Inside Convection Algorithm
  ,                                       !- Zone Outside Convection Algorithm
  ,                                       !- Zone Conditioning Equipment List Name
  {78447e71-70fb-4231-8baf-dff54e3db56a}, !- Zone Air Inlet Port List
  {a349871b-a1a5-41ef-9482-7b56b446a353}, !- Zone Air Exhaust Port List
  {3d9f931f-6d1a-4ced-9752-230cc550c062}, !- Zone Air Node Name
  ,                                       !- Zone Return Air Node Name
  ,                                       !- Primary Daylighting Control Name
  ,                                       !- Fraction of Zone Controlled by Primary Daylighting Control
  ,                                       !- Secondary Daylighting Control Name
  ,                                       !- Fraction of Zone Controlled by Secondary Daylighting Control
  ,                                       !- Illuminance Map Name
  {200d6294-fda2-4b5e-805e-8996752fcfe1}, !- Group Rendering Name
  {5f458315-c3ee-48fe-8f5a-68b22a8f1f3e}, !- Thermostat Name
  No;                                     !- Use Ideal Air Loads

OS:Node,
  {f2dc9811-d08e-4b7f-bfb8-be16773bfe2c}, !- Handle
  {0628a441-dd58-4747-b49f-b343da599f6d}, !- Name
  {3d9f931f-6d1a-4ced-9752-230cc550c062}, !- Inlet Port
  ;                                       !- Outlet Port

OS:Connection,
  {3d9f931f-6d1a-4ced-9752-230cc550c062}, !- Handle
  {062cff3f-f4df-4915-bff5-f93db38c1331}, !- Name
  {9d56d9ef-1708-4a6d-8292-506e33031c83}, !- Source Object
  11,                                     !- Outlet Port
  {f2dc9811-d08e-4b7f-bfb8-be16773bfe2c}, !- Target Object
  2;                                      !- Inlet Port

OS:PortList,
  {78447e71-70fb-4231-8baf-dff54e3db56a}, !- Handle
  {1472dbc5-0218-44e2-bab6-9cda4cd44c46}, !- Name
  {9d56d9ef-1708-4a6d-8292-506e33031c83}; !- HVAC Component

OS:PortList,
  {a349871b-a1a5-41ef-9482-7b56b446a353}, !- Handle
  {1ac96222-01f3-4d98-be51-84d441a0c3f0}, !- Name
  {9d56d9ef-1708-4a6d-8292-506e33031c83}; !- HVAC Component

OS:Sizing:Zone,
  {12194a1c-4bbf-4353-9ce0-1779039bb976}, !- Handle
  {9d56d9ef-1708-4a6d-8292-506e33031c83}, !- Zone or ZoneList Name
  SupplyAirTemperature,                   !- Zone Cooling Design Supply Air Temperature Input Method
  14.4444444444444,                       !- Zone Cooling Design Supply Air Temperature {C}
  11.11,                                  !- Zone Cooling Design Supply Air Temperature Difference {deltaC}
  SupplyAirTemperature,                   !- Zone Heating Design Supply Air Temperature Input Method
  48.8888888888889,                       !- Zone Heating Design Supply Air Temperature {C}
  11.11,                                  !- Zone Heating Design Supply Air Temperature Difference {deltaC}
  0.0085,                                 !- Zone Cooling Design Supply Air Humidity Ratio {kg-H2O/kg-air}
  0.008,                                  !- Zone Heating Design Supply Air Humidity Ratio {kg-H2O/kg-air}
  ,                                       !- Zone Heating Sizing Factor
  ,                                       !- Zone Cooling Sizing Factor
  Flow/Zone,                              !- Cooling Design Air Flow Method
  0.283168465920001,                      !- Cooling Design Air Flow Rate {m3/s}
  ,                                       !- Cooling Minimum Air Flow per Zone Floor Area {m3/s-m2}
  ,                                       !- Cooling Minimum Air Flow {m3/s}
  0,                                      !- Cooling Minimum Air Flow Fraction
  DesignDay,                              !- Heating Design Air Flow Method
  0.174620553984,                         !- Heating Design Air Flow Rate {m3/s}
  ,                                       !- Heating Maximum Air Flow per Zone Floor Area {m3/s-m2}
  ,                                       !- Heating Maximum Air Flow {m3/s}
  0,                                      !- Heating Maximum Air Flow Fraction
  1,                                      !- Design Zone Air Distribution Effectiveness in Cooling Mode
  1,                                      !- Design Zone Air Distribution Effectiveness in Heating Mode
  No,                                     !- Account for Dedicated Outdoor Air System
  NeutralSupplyAir,                       !- Dedicated Outdoor Air System Control Strategy
  autosize,                               !- Dedicated Outdoor Air Low Setpoint Temperature for Design {C}
  autosize;                               !- Dedicated Outdoor Air High Setpoint Temperature for Design {C}

OS:ZoneHVAC:EquipmentList,
  {0c1de6b9-f5e3-4574-9c64-ec1ccdef6988}, !- Handle
  {0ff930d0-9456-4482-805b-d71c26e1f105}, !- Name
  {9d56d9ef-1708-4a6d-8292-506e33031c83}; !- Thermal Zone

OS:Space,
  {db805cf9-601d-4fc7-8722-b98c24e9488d}, !- Handle
  Room 105,                               !- Name
  ,                                       !- Space Type Name
  ,                                       !- Default Construction Set Name
  ,                                       !- Default Schedule Set Name
  -0,                                     !- Direction of Relative North {deg}
  0,                                      !- X Origin {m}
  0,                                      !- Y Origin {m}
  0,                                      !- Z Origin {m}
  ,                                       !- Building Story Name
  {9d56d9ef-1708-4a6d-8292-506e33031c83}, !- Thermal Zone Name
  ,                                       !- Part of Total Floor Area
  {6007c2a9-14cd-4f48-bacd-123f79498b3b}, !- Design Specification Outdoor Air Object Name
  ;                                       !- Building Unit Name

OS:ThermostatSetpoint:DualSetpoint,
  {5f458315-c3ee-48fe-8f5a-68b22a8f1f3e}, !- Handle
  Thermostat Dual SP Control,             !- Name
  {f7fd6372-2614-4942-b9f9-f42b05ca6985}, !- Heating Setpoint Temperature Schedule Name
  {a19fec98-b3ce-4c44-a755-af23b626c43f}; !- Cooling Setpoint Temperature Schedule Name

OS:Schedule:Compact,
  {c0a070f4-93c6-4809-9c18-598eb1f7c8aa}, !- Handle
  Heating Schedule,                       !- Name
  {dbf3aaa7-483c-4d06-9f4e-5b6321805096}, !- Schedule Type Limits Name
  Through: 12/31,                         !- Field 1
  For: Weekdays,                          !- Field 2
  Until: 06:00,                           !- Field 3
  15,                                     !- Field 4
  Until: 18:00,                           !- Field 5
  21.11,                                  !- Field 6
  Until 24:00,                            !- Field 7
  15,                                     !- Field 8
  For: SummerDesignDay,                   !- Field 9
  Until: 24:00,                           !- Field 10
  21.11,                                  !- Field 11
  For: Saturday,                          !- Field 12
  Until: 06:00,                           !- Field 13
  15,                                     !- Field 14
  Until: 18:00,                           !- Field 15
  21.11,                                  !- Field 16
  Until 24:00,                            !- Field 17
  15,                                     !- Field 18
  For: WinterDesignDay,                   !- Field 19
  Until: 24:00,                           !- Field 20
  21.11,                                  !- Field 21
  For: Sunday Holidays AllOtherDays,      !- Field 22
  Until: 06:00,                           !- Field 23
  15,                                     !- Field 24
  Until: 18:00,                           !- Field 25
  21.11,                                  !- Field 26
  Until 24:00,                            !- Field 27
  15;                                     !- Field 28

OS:ScheduleTypeLimits,
  {dbf3aaa7-483c-4d06-9f4e-5b6321805096}, !- Handle
  Temperature,                            !- Name
  -60,                                    !- Lower Limit Value
  200,                                    !- Upper Limit Value
  CONTINUOUS,                             !- Numeric Type
  temperature;                            !- Unit Type

OS:Schedule:Compact,
  {8431dfbd-66cb-4617-a98e-3e02fee3da86}, !- Handle
  Cooling Schedule,                       !- Name
  {dbf3aaa7-483c-4d06-9f4e-5b6321805096}, !- Schedule Type Limits Name
  Through: 12/31,                         !- Field 1
  For: Weekdays,                          !- Field 2
  Until: 06:00,                           !- Field 3
  31.7,                                   !- Field 4
  Until: 18:00,                           !- Field 5
  23.9,                                   !- Field 6
  Until 24:00,                            !- Field 7
  31.7,                                   !- Field 8
  For: SummerDesignDay,                   !- Field 9
  Until: 24:00,                           !- Field 10
  23.9,                                   !- Field 11
  For: Saturday,                          !- Field 12
  Until: 06:00,                           !- Field 13
  31.7,                                   !- Field 14
  Until: 18:00,                           !- Field 15
  23.9,                                   !- Field 16
  Until 24:00,                            !- Field 17
  31.7,                                   !- Field 18
  For: WinterDesignDay,                   !- Field 19
  Until: 24:00,                           !- Field 20
  23.9,                                   !- Field 21
  For: Sunday Holidays AllOtherDays,      !- Field 22
  Until: 06:00,                           !- Field 23
  31.7,                                   !- Field 24
  Until: 18:00,                           !- Field 25
  23.9,                                   !- Field 26
  Until 24:00,                            !- Field 27
  31.7;                                   !- Field 28

OS:Schedule:Compact,
  {6a0b8aa9-c601-4906-9c5b-752fbd106c68}, !- Handle
  ALWAYS_OFF,                             !- Name
  {8fad75d8-a002-4cca-b9ac-863d8f49397b}, !- Schedule Type Limits Name
  Through: 12/31,                         !- Field 1
  For: AllDays,                           !- Field 2
  Until: 24:00,                           !- Field 3
  0.0;                                    !- Field 4

OS:ScheduleTypeLimits,
  {8fad75d8-a002-4cca-b9ac-863d8f49397b}, !- Handle
  Fraction,                               !- Name
  0,                                      !- Lower Limit Value
  1,                                      !- Upper Limit Value
  CONTINUOUS;                             !- Numeric Type

OS:Schedule:Compact,
  {2dba211e-36a6-4924-abfc-ec37a3b0b54f}, !- Handle
  BLDG_LIGHT_Upst_SCH,                    !- Name
  {8fad75d8-a002-4cca-b9ac-863d8f49397b}, !- Schedule Type Limits Name
  Through: 12/31,                         !- Field 1
  For: AllDays,                           !- Field 2
  Until: 05:00,                           !- Field 3
  0.15,                                   !- Field 4
  Until: 07:00,                           !- Field 5
  0.15,                                   !- Field 6
  Until: 08:00,                           !- Field 7
  0.15,                                   !- Field 8
  Until: 09:00,                           !- Field 9
  0.15,                                   !- Field 10
  Until: 10:00,                           !- Field 11
  0.15,                                   !- Field 12
  Until: 11:00,                           !- Field 13
  0.9,                                    !- Field 14
  Until: 19:00,                           !- Field 15
  0.9,                                    !- Field 16
  Until: 21:00,                           !- Field 17
  0.55,                                   !- Field 18
  Until: 22:00,                           !- Field 19
  0.15,                                   !- Field 20
  Until: 23:00,                           !- Field 21
  0.15,                                   !- Field 22
  Until: 24:00,                           !- Field 23
  0.15;                                   !- Field 24

OS:Curve:Biquadratic,
  {55cb1bdd-d54f-44ff-bc01-a6cfba25967b}, !- Handle
  RoofTop DX Coil Low EIR-FT,             !- Name
  0.774645,                               !- Coefficient1 Constant
  -0.0343731,                             !- Coefficient2 x
  0.000783173,                            !- Coefficient3 x**2
  0.0146596,                              !- Coefficient4 y
  0.000488851,                            !- Coefficient5 y**2
  -0.000752036,                           !- Coefficient6 x*y
  12.77778,                               !- Minimum Value of x
  23.88889,                               !- Maximum Value of x
  23.88889,                               !- Minimum Value of y
  46.11111;                               !- Maximum Value of y

OS:ThermalZone,
  {7c4211d2-b1cf-46f6-92bb-ef23fdb7bac0}, !- Handle
  Room 206 Thermal Zone,                  !- Name
  ,                                       !- Multiplier
  ,                                       !- Ceiling Height {m}
  ,                                       !- Volume {m3}
  ,                                       !- Floor Area {m2}
  ,                                       !- Zone Inside Convection Algorithm
  ,                                       !- Zone Outside Convection Algorithm
  ,                                       !- Zone Conditioning Equipment List Name
  {fcd0eaad-95c2-4aaf-bf08-3b13ea2a27fb}, !- Zone Air Inlet Port List
  {2fdb4586-6622-45c0-91b4-43ca0c2111a9}, !- Zone Air Exhaust Port List
  {629cc642-b126-486b-9e9e-afb7866e8431}, !- Zone Air Node Name
  ,                                       !- Zone Return Air Node Name
  ,                                       !- Primary Daylighting Control Name
  ,                                       !- Fraction of Zone Controlled by Primary Daylighting Control
  ,                                       !- Secondary Daylighting Control Name
  ,                                       !- Fraction of Zone Controlled by Secondary Daylighting Control
  ,                                       !- Illuminance Map Name
  {535f2083-2407-4665-9009-404a48cdc3cd}, !- Group Rendering Name
  {588351be-fe14-49fe-a234-284f595fc9fc}, !- Thermostat Name
  No;                                     !- Use Ideal Air Loads

OS:Node,
  {85e71c09-d5f7-4af2-ac49-78112367c41b}, !- Handle
  {76064095-69fd-4710-a706-3caca6b1930a}, !- Name
  {629cc642-b126-486b-9e9e-afb7866e8431}, !- Inlet Port
  ;                                       !- Outlet Port

OS:Connection,
  {629cc642-b126-486b-9e9e-afb7866e8431}, !- Handle
  {0b935fbe-e598-42f0-98c7-7e62a5f1e91e}, !- Name
  {7c4211d2-b1cf-46f6-92bb-ef23fdb7bac0}, !- Source Object
  11,                                     !- Outlet Port
  {85e71c09-d5f7-4af2-ac49-78112367c41b}, !- Target Object
  2;                                      !- Inlet Port

OS:PortList,
  {fcd0eaad-95c2-4aaf-bf08-3b13ea2a27fb}, !- Handle
  {9364a082-1a60-4fc7-9c57-ac10a56a1948}, !- Name
  {7c4211d2-b1cf-46f6-92bb-ef23fdb7bac0}; !- HVAC Component

OS:PortList,
  {2fdb4586-6622-45c0-91b4-43ca0c2111a9}, !- Handle
  {63aceef3-6099-46c9-8e9a-e7140a93dd07}, !- Name
  {7c4211d2-b1cf-46f6-92bb-ef23fdb7bac0}; !- HVAC Component

OS:Sizing:Zone,
  {f6334ddd-3726-4db4-8a09-a332d0788b3d}, !- Handle
  {7c4211d2-b1cf-46f6-92bb-ef23fdb7bac0}, !- Zone or ZoneList Name
  SupplyAirTemperature,                   !- Zone Cooling Design Supply Air Temperature Input Method
  14.4444444444444,                       !- Zone Cooling Design Supply Air Temperature {C}
  11.11,                                  !- Zone Cooling Design Supply Air Temperature Difference {deltaC}
  SupplyAirTemperature,                   !- Zone Heating Design Supply Air Temperature Input Method
  48.8888888888889,                       !- Zone Heating Design Supply Air Temperature {C}
  11.11,                                  !- Zone Heating Design Supply Air Temperature Difference {deltaC}
  0.0085,                                 !- Zone Cooling Design Supply Air Humidity Ratio {kg-H2O/kg-air}
  0.008,                                  !- Zone Heating Design Supply Air Humidity Ratio {kg-H2O/kg-air}
  ,                                       !- Zone Heating Sizing Factor
  ,                                       !- Zone Cooling Sizing Factor
  Flow/Zone,                              !- Cooling Design Air Flow Method
  0.297326889216001,                      !- Cooling Design Air Flow Rate {m3/s}
  ,                                       !- Cooling Minimum Air Flow per Zone Floor Area {m3/s-m2}
  ,                                       !- Cooling Minimum Air Flow {m3/s}
  0,                                      !- Cooling Minimum Air Flow Fraction
  DesignDay,                              !- Heating Design Air Flow Method
  0.174620553984,                         !- Heating Design Air Flow Rate {m3/s}
  ,                                       !- Heating Maximum Air Flow per Zone Floor Area {m3/s-m2}
  ,                                       !- Heating Maximum Air Flow {m3/s}
  0,                                      !- Heating Maximum Air Flow Fraction
  1,                                      !- Design Zone Air Distribution Effectiveness in Cooling Mode
  1,                                      !- Design Zone Air Distribution Effectiveness in Heating Mode
  No,                                     !- Account for Dedicated Outdoor Air System
  NeutralSupplyAir,                       !- Dedicated Outdoor Air System Control Strategy
  autosize,                               !- Dedicated Outdoor Air Low Setpoint Temperature for Design {C}
  autosize;                               !- Dedicated Outdoor Air High Setpoint Temperature for Design {C}

OS:ZoneHVAC:EquipmentList,
  {d225ad27-a113-4eca-9a75-f631d6de2249}, !- Handle
  {1f4fd0f0-53fc-4dc4-8a59-9ef81a65d8c7}, !- Name
  {7c4211d2-b1cf-46f6-92bb-ef23fdb7bac0}; !- Thermal Zone

OS:Space,
  {84006107-706a-489e-8d81-079fe35111fe}, !- Handle
  Room 206,                               !- Name
  ,                                       !- Space Type Name
  ,                                       !- Default Construction Set Name
  ,                                       !- Default Schedule Set Name
  -0,                                     !- Direction of Relative North {deg}
  0,                                      !- X Origin {m}
  0,                                      !- Y Origin {m}
  0,                                      !- Z Origin {m}
  ,                                       !- Building Story Name
  {7c4211d2-b1cf-46f6-92bb-ef23fdb7bac0}, !- Thermal Zone Name
  ,                                       !- Part of Total Floor Area
  {1c96b3e2-e809-48ce-8a4b-d4bf87cfde17}, !- Design Specification Outdoor Air Object Name
  ;                                       !- Building Unit Name

OS:ThermostatSetpoint:DualSetpoint,
  {588351be-fe14-49fe-a234-284f595fc9fc}, !- Handle
  {882cbd62-c5df-44a4-9355-db7b82cf4283}, !- Name
  {f7fd6372-2614-4942-b9f9-f42b05ca6985}, !- Heating Setpoint Temperature Schedule Name
  {a19fec98-b3ce-4c44-a755-af23b626c43f}; !- Cooling Setpoint Temperature Schedule Name

OS:DesignSpecification:OutdoorAir,
  {1c96b3e2-e809-48ce-8a4b-d4bf87cfde17}, !- Handle
  ZoneOA Design,                          !- Name
  ,                                       !- Outdoor Air Method
  ,                                       !- Outdoor Air Flow per Person {m3/s-person}
  ,                                       !- Outdoor Air Flow per Floor Area {m3/s-m2}
  0,                                      !- Outdoor Air Flow Rate {m3/s}
  ,                                       !- Outdoor Air Flow Air Changes per Hour {1/hr}
  {6a0b8aa9-c601-4906-9c5b-752fbd106c68}; !- Outdoor Air Flow Rate Fraction Schedule Name

OS:Output:Variable,
  {beb86269-77ca-4478-984a-18d416bfdc87}, !- Handle
  {0f076c6a-4681-4c20-a951-a59ac7c5d75c}, !- Name
  Room 206 Supply Inlet,                  !- Key Value
  System Node Temperature,                !- Variable Name
  Hourly;                                 !- Reporting Frequency

OS:Curve:Quadratic,
  {2574919c-33f2-4152-8ee7-322c5ab9e13d}, !- Handle
  Lennox KCA120S4 PLFFPLR,                !- Name
  0.85,                                   !- Coefficient1 Constant
  0.15,                                   !- Coefficient2 x
  0,                                      !- Coefficient3 x**2
  0,                                      !- Minimum Value of x
  1;                                      !- Maximum Value of x

OS:Output:Variable,
  {6d697eb2-f0f8-4b0c-ae11-9e9bbde694cf}, !- Handle
  {29ff6812-6c92-4dcd-bfda-30f1420521c6}, !- Name
  Room 203 Supply Inlet,                  !- Key Value
  System Node Temperature,                !- Variable Name
  Hourly;                                 !- Reporting Frequency

OS:Surface,
  {26a92a24-c4c7-4b92-bc02-38a33c40d856}, !- Handle
  2D4821,                                 !- Name
  Wall,                                   !- Surface Type
  {fed622dc-87b6-42cd-afeb-209dd2b17d6c}, !- Construction Name
  {44216e6c-8d45-4331-9392-6cdf3a38cd16}, !- Space Name
  Surface,                                !- Outside Boundary Condition
  {2b698845-090e-4a75-bbf7-a7602e582576}, !- Outside Boundary Condition Object
  NoSun,                                  !- Sun Exposure
  NoWind,                                 !- Wind Exposure
  0,                                      !- View Factor to Ground
  ,                                       !- Number of Vertices
  10.16, 12.8016, 2.7432,                 !- X,Y,Z Vertex 1 {m}
  10.16, 12.8016, 0,                      !- X,Y,Z Vertex 2 {m}
  10.16, 5.4689, 0,                       !- X,Y,Z Vertex 3 {m}
  10.16, 5.4689, 2.7432;                  !- X,Y,Z Vertex 4 {m}

OS:ThermalZone,
  {8ce3be51-d746-4c6e-9377-3479d45817b7}, !- Handle
  Room 101 Thermal Zone,                  !- Name
  ,                                       !- Multiplier
  ,                                       !- Ceiling Height {m}
  ,                                       !- Volume {m3}
  ,                                       !- Floor Area {m2}
  ,                                       !- Zone Inside Convection Algorithm
  ,                                       !- Zone Outside Convection Algorithm
  ,                                       !- Zone Conditioning Equipment List Name
  {9a4d5974-53ce-45cf-9394-d3cb922f7696}, !- Zone Air Inlet Port List
  {cb04c314-40a9-4377-9592-b84f20068a47}, !- Zone Air Exhaust Port List
  {de917765-c019-4d2a-8b13-7d040eb79b87}, !- Zone Air Node Name
  ,                                       !- Zone Return Air Node Name
  ,                                       !- Primary Daylighting Control Name
  ,                                       !- Fraction of Zone Controlled by Primary Daylighting Control
  ,                                       !- Secondary Daylighting Control Name
  ,                                       !- Fraction of Zone Controlled by Secondary Daylighting Control
  ,                                       !- Illuminance Map Name
  {70ed9cf2-c01f-40a5-b622-3596d61d82fa}, !- Group Rendering Name
  ,                                       !- Thermostat Name
  No;                                     !- Use Ideal Air Loads

OS:Node,
  {be57fdca-76b8-49e8-9eb4-e5e79050577f}, !- Handle
  {4c5beacb-b53f-4731-8b18-9b5780963029}, !- Name
  {de917765-c019-4d2a-8b13-7d040eb79b87}, !- Inlet Port
  ;                                       !- Outlet Port

OS:Connection,
  {de917765-c019-4d2a-8b13-7d040eb79b87}, !- Handle
  {e05036b1-a2fc-4e46-b820-d4418336481b}, !- Name
  {8ce3be51-d746-4c6e-9377-3479d45817b7}, !- Source Object
  11,                                     !- Outlet Port
  {be57fdca-76b8-49e8-9eb4-e5e79050577f}, !- Target Object
  2;                                      !- Inlet Port

OS:PortList,
  {9a4d5974-53ce-45cf-9394-d3cb922f7696}, !- Handle
  {84440d55-89ad-46df-a84e-c840ae70d5ef}, !- Name
  {8ce3be51-d746-4c6e-9377-3479d45817b7}; !- HVAC Component

OS:PortList,
  {cb04c314-40a9-4377-9592-b84f20068a47}, !- Handle
  {12888f6e-997e-42e2-a0bc-784d48b15c9b}, !- Name
  {8ce3be51-d746-4c6e-9377-3479d45817b7}; !- HVAC Component

OS:Sizing:Zone,
  {35408640-a290-4920-87ca-51787430e7c6}, !- Handle
  {8ce3be51-d746-4c6e-9377-3479d45817b7}, !- Zone or ZoneList Name
  SupplyAirTemperature,                   !- Zone Cooling Design Supply Air Temperature Input Method
  14,                                     !- Zone Cooling Design Supply Air Temperature {C}
  11.11,                                  !- Zone Cooling Design Supply Air Temperature Difference {deltaC}
  SupplyAirTemperature,                   !- Zone Heating Design Supply Air Temperature Input Method
  40,                                     !- Zone Heating Design Supply Air Temperature {C}
  11.11,                                  !- Zone Heating Design Supply Air Temperature Difference {deltaC}
  0.0085,                                 !- Zone Cooling Design Supply Air Humidity Ratio {kg-H2O/kg-air}
  0.008,                                  !- Zone Heating Design Supply Air Humidity Ratio {kg-H2O/kg-air}
  ,                                       !- Zone Heating Sizing Factor
  ,                                       !- Zone Cooling Sizing Factor
  DesignDay,                              !- Cooling Design Air Flow Method
  ,                                       !- Cooling Design Air Flow Rate {m3/s}
  ,                                       !- Cooling Minimum Air Flow per Zone Floor Area {m3/s-m2}
  ,                                       !- Cooling Minimum Air Flow {m3/s}
  ,                                       !- Cooling Minimum Air Flow Fraction
  DesignDay,                              !- Heating Design Air Flow Method
  ,                                       !- Heating Design Air Flow Rate {m3/s}