
OS:Version,
  {2eae309e-c4e6-4bb5-8ef2-2c61f72011cf}, !- Handle
  2.3.0;                                  !- Version Identifier

OS:Schedule:Constant,
  {232fef3c-8c0e-47df-96d9-3cfffb2d2951}, !- Handle
  Always On Discrete,                     !- Name
  {db14a9bb-88b0-45c9-a297-5d38f44ce0e4}, !- Schedule Type Limits Name
  1;                                      !- Value

OS:ScheduleTypeLimits,
  {db14a9bb-88b0-45c9-a297-5d38f44ce0e4}, !- Handle
  Always On Discrete Limits,              !- Name
  0,                                      !- Lower Limit Value
  1,                                      !- Upper Limit Value
  Discrete,                               !- Numeric Type
  Availability;                           !- Unit Type

OS:Construction,
  {cf81dd0b-fee6-4952-8177-441f534451c5}, ! Handle
  000_AtticRoof_ClimateZone 1-8,          ! Name
  {9bb37ec8-1461-4014-abce-ed153e728e74}, ! Surface Rendering Name
  {73f1746f-75d1-4841-9ff2-6f18ba02d0e6}, ! Layer 1
  {20afd4d9-ded7-43d1-8865-34e724b1b60c}; ! Layer 2

OS:Construction,
  {b88691a7-e9b0-4ff0-87e4-858b5b50b56c}, ! Handle
  000_ExtSlabCarpet_4in_ClimateZone 1-8,  ! Name
  {a4d68d9c-1d5a-4763-993d-b68774d10459}, ! Surface Rendering Name
  {6ca1be0b-c108-4da7-b0ac-6ad381292cf9}, ! Layer 1
  {4829416a-42ad-44d0-8086-cda21f574e8a}; ! Layer 2

OS:Construction,
  {a8bade1f-a519-47be-813c-f8b2d74acf22}, ! Handle
  000_ExtSlabCarpet_8in_ClimateZone 1-8,  ! Name
  {5da30189-ae97-4dc0-b1ac-c769fb858759}, ! Surface Rendering Name
  {e2e86be4-dd78-4fdb-a5c7-e4439f51ac21}, ! Layer 1
  {4829416a-42ad-44d0-8086-cda21f574e8a}; ! Layer 2

OS:Construction,
  {214c9f82-e34e-4143-bacd-dd958ef63823}, ! Handle
  000_ExtSlab_4in_ClimateZone 1-8,        ! Name
  {defd6ecf-67ab-4b63-87b4-7729ffc706da}, ! Surface Rendering Name
  {6ca1be0b-c108-4da7-b0ac-6ad381292cf9}; ! Layer 1

OS:Construction,
  {57781d80-14d1-470a-82ca-90a031bce305}, ! Handle
  000_ExtSlab_8in_ClimateZone 1-8,        ! Name
  {6a48b26c-8206-4793-8d83-2e0d368fac38}, ! Surface Rendering Name
  {e2e86be4-dd78-4fdb-a5c7-e4439f51ac21}; ! Layer 1

OS:Construction,
  {fb30531d-9266-4c91-885f-0ec2fb5482e6}, ! Handle
  000_Exterior Door,                      ! Name
  {5a66d4b6-907e-49fb-a958-11262e4c09a5}, ! Surface Rendering Name
  {9fb81b02-9529-419e-b149-01cdb2cf7219}, ! Layer 1
  {2f8699de-628a-4d91-89bc-a2003bd241a2}; ! Layer 2

OS:Construction,
  {0709dfa1-4397-40ff-af32-b9dd823630b7}, ! Handle
  000_Exterior Floor,                     ! Name
  {aba19d53-9ab6-423c-b71b-51a594fb9f3b}, ! Surface Rendering Name
  {ff6f13dd-4193-427a-ba47-7d57532c09b3}, ! Layer 1
  {8a5649b6-0f7b-4f48-b48b-656f0f837d33}; ! Layer 2

OS:Construction,
  {9d0a3f5f-8569-4993-a529-4019d04d875f}, ! Handle
  000_Exterior Roof,                      ! Name
  {59d7c5fd-64f7-4fc8-a8bd-1ed9244b83af}, ! Surface Rendering Name
  {2f51105a-7abf-4f6c-891f-aa1ffa885b7e}, ! Layer 1
  {154ce79a-1818-4a85-bf75-4c23be618976}, ! Layer 2
  {b06f6fbc-c1a8-4d18-8573-db1f00ca6bdd}; ! Layer 3

OS:Construction,
  {0963de92-4b23-49d3-a415-68cb0a85069a}, ! Handle
  000_Exterior Wall,                      ! Name
  {a5788ca7-a3b3-4460-b298-1a9809891127}, ! Surface Rendering Name
  {4947ef83-cbe7-47bf-b3b6-b08f46be7557}, ! Layer 1
  {8a5649b6-0f7b-4f48-b48b-656f0f837d33}, ! Layer 2
  {ff6f13dd-4193-427a-ba47-7d57532c09b3}, ! Layer 3
  {6ec6a775-0e56-44dd-9f52-466bd994e8d3}, ! Layer 4
  {46a07526-59bd-4a42-a66b-60885191fd13}; ! Layer 5

OS:Construction,
  {a618bef4-afe5-4dde-bcf5-8057338cba27}, ! Handle
  000_Exterior Window,                    ! Name
  {df81a20c-ba75-430d-9e0d-bf9df046049f}, ! Surface Rendering Name
  {5f6ae3ef-9c31-4e99-9af4-65bb800bd348}, ! Layer 1
  {1ca04821-de7f-4d8d-8ded-b4d13d49252f}, ! Layer 2
  {5f6ae3ef-9c31-4e99-9af4-65bb800bd348}; ! Layer 3

OS:Construction,
  {224cc0f9-077e-428d-bc7c-ac2fb3dd8241}, ! Handle
  000_Interior Ceiling,                   ! Name
  {f98f67a1-eba3-4d0f-9647-86d74ccc917a}, ! Surface Rendering Name
  {2f51105a-7abf-4f6c-891f-aa1ffa885b7e}, ! Layer 1
  {154ce79a-1818-4a85-bf75-4c23be618976}, ! Layer 2
  {b06f6fbc-c1a8-4d18-8573-db1f00ca6bdd}; ! Layer 3

OS:Construction,
  {8a7ba072-82ca-4f77-af03-922fb4e52b19}, ! Handle
  000_Interior Door,                      ! Name
  {6f550b55-3cee-488d-a46a-fa8a6b020d14}, ! Surface Rendering Name
  {470d66ed-8e68-4f8a-b77d-aae767a2d1a3}; ! Layer 1

OS:Construction,
  {128499cd-b542-41a5-9306-748b7a658703}, ! Handle
  000_Interior Floor,                     ! Name
  {7b04fa4b-d8b7-4d00-b1ab-2bf307eec58f}, ! Surface Rendering Name
  {b06f6fbc-c1a8-4d18-8573-db1f00ca6bdd}, ! Layer 1
  {154ce79a-1818-4a85-bf75-4c23be618976}, ! Layer 2
  {2f51105a-7abf-4f6c-891f-aa1ffa885b7e}; ! Layer 3

OS:Construction,
  {7637dc40-61ee-48cd-b120-3672a87ad41e}, ! Handle
  000_Interior Partition,                 ! Name
  {8c82cade-ec8a-44fb-9bbf-4a30bea744c0}, ! Surface Rendering Name
  {470d66ed-8e68-4f8a-b77d-aae767a2d1a3}; ! Layer 1

OS:Construction,
  {bebe4adc-f849-444f-9b2f-fed9b735e166}, ! Handle
  000_Interior Wall,                      ! Name
  {9eee4751-e529-4e47-9860-1c19f1339322}, ! Surface Rendering Name
  {46a07526-59bd-4a42-a66b-60885191fd13}, ! Layer 1
  {6ec6a775-0e56-44dd-9f52-466bd994e8d3}, ! Layer 2
  {46a07526-59bd-4a42-a66b-60885191fd13}; ! Layer 3

OS:Construction,
  {84ce7365-ed93-4f6e-bb34-aea6faca9c6e}, ! Handle
  000_Interior Window,                    ! Name
  {94983f0a-7d48-442c-b3a4-3a7ecbe76aa3}, ! Surface Rendering Name
  {5f6ae3ef-9c31-4e99-9af4-65bb800bd348}; ! Layer 1

OS:Construction,
  {9c7fa3f3-0827-4f81-a2c1-adf85b6f7816}, ! Handle
  ASHRAE_189.1-2009_AtticFloor_ClimateZone 1-8, ! Name
  {755cb7d5-ec87-429b-94fc-05f8a446ed8d}, ! Surface Rendering Name
  {9d7a650f-da6a-4881-a717-5edacbdaa0ce}, ! Layer 1
  {690e3d44-6612-4098-bc31-ae57dfec05f1}, ! Layer 2
  {9d7a650f-da6a-4881-a717-5edacbdaa0ce}; ! Layer 3

OS:Construction,
  {6dc53208-9c99-464e-bf88-a1383ffdef91}, ! Handle
  ASHRAE_189.1-2009_ExtRoof_IEAD_ClimateZone 1, ! Name
  {8e88828e-f667-4328-a948-5b94002ee197}, ! Surface Rendering Name
  {73f1746f-75d1-4841-9ff2-6f18ba02d0e6}, ! Layer 1
  {a14978b4-9960-43b0-adbd-fd0767c1d9aa}, ! Layer 2
  {20afd4d9-ded7-43d1-8865-34e724b1b60c}; ! Layer 3

OS:Construction,
  {5cb0b684-57aa-4edc-abf4-f11bf072de56}, ! Handle
  ASHRAE_189.1-2009_ExtRoof_IEAD_ClimateZone 2-5, ! Name
  {d3fe5e76-0f02-4cc6-ae37-a32cf7bb58cb}, ! Surface Rendering Name
  {73f1746f-75d1-4841-9ff2-6f18ba02d0e6}, ! Layer 1
  {f2b61501-6800-4027-ae28-81e0c99e8048}, ! Layer 2
  {20afd4d9-ded7-43d1-8865-34e724b1b60c}; ! Layer 3

OS:Construction,
  {a9a155dc-5d71-44eb-af43-f433f38004ee}, ! Handle
  ASHRAE_189.1-2009_ExtRoof_IEAD_ClimateZone 6, ! Name
  {8856418b-17a0-4fe4-a021-706f74781a5f}, ! Surface Rendering Name
  {73f1746f-75d1-4841-9ff2-6f18ba02d0e6}, ! Layer 1
  {2087bfd4-c1c9-40c4-bf17-388746514ab1}, ! Layer 2
  {20afd4d9-ded7-43d1-8865-34e724b1b60c}; ! Layer 3

OS:Construction,
  {e8d6a9b2-bcba-49bd-a499-dea295fd2abf}, ! Handle
  ASHRAE_189.1-2009_ExtRoof_IEAD_ClimateZone 7-8, ! Name
  {2af062ed-23a5-4f11-a23b-87fe27720554}, ! Surface Rendering Name
  {73f1746f-75d1-4841-9ff2-6f18ba02d0e6}, ! Layer 1
  {5027d4a1-e377-491f-841a-4afe7032dbde}, ! Layer 2
  {20afd4d9-ded7-43d1-8865-34e724b1b60c}; ! Layer 3

OS:Construction,
  {4c4ebd4c-3777-4760-a008-a9bbc8b6dcd2}, ! Handle
  ASHRAE_189.1-2009_ExtRoof_Metal_ClimateZone 1, ! Name
  {43032aaa-29b0-4dd5-bc99-2c7290ef9f23}, ! Surface Rendering Name
  {6a93f697-5db0-4c6d-88b0-9e6c63097b02}, ! Layer 1
  {9a65cc22-879b-4e1f-ba73-0ae8b0b45229}; ! Layer 2

OS:Construction,
  {e7f18c66-d8e7-4381-ba79-7532aeae2bab}, ! Handle
  ASHRAE_189.1-2009_ExtRoof_Metal_ClimateZone 2-5, ! Name
  {1f81eeba-05f0-4da6-99eb-61a6d69fb787}, ! Surface Rendering Name
  {6a93f697-5db0-4c6d-88b0-9e6c63097b02}, ! Layer 1
  {4f24c0fd-df69-4f16-9892-0e1fa3572bbc}; ! Layer 2

OS:Construction,
  {75e10288-a996-4d56-901a-43b000538ac5}, ! Handle
  ASHRAE_189.1-2009_ExtRoof_Metal_ClimateZone 6, ! Name
  {3d673e2d-1c60-4f95-9220-8db7b92720c1}, ! Surface Rendering Name
  {6a93f697-5db0-4c6d-88b0-9e6c63097b02}, ! Layer 1
  {2e2e9693-8210-46b6-89db-84aeb7e93173}; ! Layer 2

OS:Construction,
  {f8bb3ee5-2e3e-4a03-b2c4-b66e613f118e}, ! Handle
  ASHRAE_189.1-2009_ExtRoof_Metal_ClimateZone 7-8, ! Name
  {8ff5610e-da0f-47d7-a1de-61b8e139c08d}, ! Surface Rendering Name
  {6a93f697-5db0-4c6d-88b0-9e6c63097b02}, ! Layer 1
  {29c3c017-eb79-4687-b7fb-94a6328fec82}; ! Layer 2

OS:Construction,
  {8bd7b35f-5189-44c4-a6af-04ab5ad43768}, ! Handle
  ASHRAE_189.1-2009_ExtWall_Mass_ClimateZone 1, ! Name
  {e73d1cde-ebbd-45f5-8bd7-997132bc9ec4}, ! Surface Rendering Name
  {458c60ea-0ec0-493f-aad0-1ff7833fe141}, ! Layer 1
  {726e8a4e-8fcf-445e-abba-3bc64eb5b135}, ! Layer 2
  {3c59422e-4e90-4db6-a306-37760bcc20e4}, ! Layer 3
  {9d7a650f-da6a-4881-a717-5edacbdaa0ce}; ! Layer 4

OS:Construction,
  {4f514d75-d8fc-4639-a52f-1305c2dc5562}, ! Handle
  ASHRAE_189.1-2009_ExtWall_Mass_ClimateZone 2, ! Name
  {bc06d3fa-ac60-4d30-b772-7bf1dba1cae1}, ! Surface Rendering Name
  {458c60ea-0ec0-493f-aad0-1ff7833fe141}, ! Layer 1
  {726e8a4e-8fcf-445e-abba-3bc64eb5b135}, ! Layer 2
  {5ff6b53b-2463-4df5-aa13-2ddf66b28ee9}, ! Layer 3
  {9d7a650f-da6a-4881-a717-5edacbdaa0ce}; ! Layer 4

OS:Construction,
  {c9d0905b-1ab4-4f91-9133-f936899e28e7}, ! Handle
  ASHRAE_189.1-2009_ExtWall_Mass_ClimateZone 3, ! Name
  {cca738d2-b100-4e2f-b0b3-94fea2ea65d6}, ! Surface Rendering Name
  {458c60ea-0ec0-493f-aad0-1ff7833fe141}, ! Layer 1
  {726e8a4e-8fcf-445e-abba-3bc64eb5b135}, ! Layer 2
  {0c1418f1-f490-4969-a58b-57e665c7e907}, ! Layer 3
  {9d7a650f-da6a-4881-a717-5edacbdaa0ce}; ! Layer 4

OS:Construction,
  {e7facf61-7232-450f-b723-46441eb9963a}, ! Handle
  ASHRAE_189.1-2009_ExtWall_Mass_ClimateZone 4, ! Name
  {ed2d317f-2c47-4797-9c99-2825397e2abe}, ! Surface Rendering Name
  {458c60ea-0ec0-493f-aad0-1ff7833fe141}, ! Layer 1
  {726e8a4e-8fcf-445e-abba-3bc64eb5b135}, ! Layer 2
  {d1c0804f-e368-4ebc-b533-9a262779e19b}, ! Layer 3
  {9d7a650f-da6a-4881-a717-5edacbdaa0ce}; ! Layer 4

OS:Construction,
  {897c0610-358a-4a46-ab03-75e0f772739d}, ! Handle
  ASHRAE_189.1-2009_ExtWall_Mass_ClimateZone 5, ! Name
  {a43b069a-5b18-4429-b993-46b6ae61673b}, ! Surface Rendering Name
  {458c60ea-0ec0-493f-aad0-1ff7833fe141}, ! Layer 1
  {726e8a4e-8fcf-445e-abba-3bc64eb5b135}, ! Layer 2
  {909cd44f-68c6-49d2-9017-dc374296381f}, ! Layer 3
  {9d7a650f-da6a-4881-a717-5edacbdaa0ce}; ! Layer 4

OS:Construction,
  {ef598e5b-f520-4f97-8815-2430b14e227e}, ! Handle
  ASHRAE_189.1-2009_ExtWall_Mass_ClimateZone 6, ! Name
  {e2a02982-c391-4a8b-84cd-6606fd119d4e}, ! Surface Rendering Name
  {458c60ea-0ec0-493f-aad0-1ff7833fe141}, ! Layer 1
  {726e8a4e-8fcf-445e-abba-3bc64eb5b135}, ! Layer 2
  {cc368632-56b3-4302-b26c-e12c7b0627a6}, ! Layer 3
  {9d7a650f-da6a-4881-a717-5edacbdaa0ce}; ! Layer 4

OS:Construction,
  {b8f00d24-7eb9-4651-b152-c3455a2fb940}, ! Handle
  ASHRAE_189.1-2009_ExtWall_Mass_ClimateZone 7-8, ! Name
  {cf99db6a-5620-4e01-97d8-65827619e645}, ! Surface Rendering Name
  {458c60ea-0ec0-493f-aad0-1ff7833fe141}, ! Layer 1
  {726e8a4e-8fcf-445e-abba-3bc64eb5b135}, ! Layer 2
  {e5f281cb-5545-42a1-8f3c-dff7ea919493}, ! Layer 3
  {9d7a650f-da6a-4881-a717-5edacbdaa0ce}; ! Layer 4

OS:Construction,
  {8f731aa0-e04f-43a6-a6b5-032fe6ab3ce9}, ! Handle
  ASHRAE_189.1-2009_ExtWall_Mass_ClimateZone_alt-res 1, ! Name
  {60573641-c445-454a-9fef-e130724eeb90}, ! Surface Rendering Name
  {458c60ea-0ec0-493f-aad0-1ff7833fe141}, ! Layer 1
  {726e8a4e-8fcf-445e-abba-3bc64eb5b135}, ! Layer 2
  {5ff6b53b-2463-4df5-aa13-2ddf66b28ee9}, ! Layer 3
  {9d7a650f-da6a-4881-a717-5edacbdaa0ce}; ! Layer 4

OS:Construction,
  {457eaf48-60ff-4336-a4a8-e7c9fc015126}, ! Handle
  ASHRAE_189.1-2009_ExtWall_Mass_ClimateZone_alt-res 2, ! Name
  {5801c7e6-4578-4244-9e6a-c69c2fbb3880}, ! Surface Rendering Name
  {458c60ea-0ec0-493f-aad0-1ff7833fe141}, ! Layer 1
  {726e8a4e-8fcf-445e-abba-3bc64eb5b135}, ! Layer 2
  {0c1418f1-f490-4969-a58b-57e665c7e907}, ! Layer 3
  {9d7a650f-da6a-4881-a717-5edacbdaa0ce}; ! Layer 4

OS:Construction,
  {d567d3f3-aa8b-4bc7-9ec9-ce45bf024c6b}, ! Handle
  ASHRAE_189.1-2009_ExtWall_Mass_ClimateZone_alt-res 3, ! Name
  {222779f3-53f7-45de-9259-c8ab93bb61c5}, ! Surface Rendering Name
  {458c60ea-0ec0-493f-aad0-1ff7833fe141}, ! Layer 1
  {726e8a4e-8fcf-445e-abba-3bc64eb5b135}, ! Layer 2
  {d1c0804f-e368-4ebc-b533-9a262779e19b}, ! Layer 3
  {9d7a650f-da6a-4881-a717-5edacbdaa0ce}; ! Layer 4

OS:Construction,
  {18ed919b-8b6d-42ae-9090-768f6f72461d}, ! Handle
  ASHRAE_189.1-2009_ExtWall_Mass_ClimateZone_alt-res 4, ! Name
  {d22de759-9a21-435e-8753-4edee5563dbe}, ! Surface Rendering Name
  {458c60ea-0ec0-493f-aad0-1ff7833fe141}, ! Layer 1
  {726e8a4e-8fcf-445e-abba-3bc64eb5b135}, ! Layer 2
  {909cd44f-68c6-49d2-9017-dc374296381f}, ! Layer 3
  {9d7a650f-da6a-4881-a717-5edacbdaa0ce}; ! Layer 4

OS:Construction,
  {87ba0f94-f9de-4ddc-b838-651981028955}, ! Handle
  ASHRAE_189.1-2009_ExtWall_Mass_ClimateZone_alt-res 5, ! Name
  {4c3290b3-ea2d-4a49-9886-c73c82cafcff}, ! Surface Rendering Name
  {458c60ea-0ec0-493f-aad0-1ff7833fe141}, ! Layer 1
  {726e8a4e-8fcf-445e-abba-3bc64eb5b135}, ! Layer 2
  {cc368632-56b3-4302-b26c-e12c7b0627a6}, ! Layer 3
  {9d7a650f-da6a-4881-a717-5edacbdaa0ce}; ! Layer 4

OS:Construction,
  {5b611904-f48b-4afd-b228-d51b5220b3ce}, ! Handle
  ASHRAE_189.1-2009_ExtWall_Mass_ClimateZone_alt-res 6, ! Name
  {0330bee4-9d64-4bc4-8e7a-69b2984f660a}, ! Surface Rendering Name
  {458c60ea-0ec0-493f-aad0-1ff7833fe141}, ! Layer 1
  {726e8a4e-8fcf-445e-abba-3bc64eb5b135}, ! Layer 2
  {e5f281cb-5545-42a1-8f3c-dff7ea919493}, ! Layer 3
  {9d7a650f-da6a-4881-a717-5edacbdaa0ce}; ! Layer 4

OS:Construction,
  {5b1576da-4167-41d8-bfd4-4ed1bb517164}, ! Handle
  ASHRAE_189.1-2009_ExtWall_Mass_ClimateZone_alt-res 7, ! Name
  {938b2144-df08-48f1-8ce2-bb3a49d9fb67}, ! Surface Rendering Name
  {458c60ea-0ec0-493f-aad0-1ff7833fe141}, ! Layer 1
  {726e8a4e-8fcf-445e-abba-3bc64eb5b135}, ! Layer 2
  {e5f281cb-5545-42a1-8f3c-dff7ea919493}, ! Layer 3
  {9d7a650f-da6a-4881-a717-5edacbdaa0ce}; ! Layer 4

OS:Construction,
  {3eb0a79d-db20-46fa-869b-b2b192799378}, ! Handle
  ASHRAE_189.1-2009_ExtWall_Mass_ClimateZone_alt-res 8, ! Name
  {6a689558-45ec-40de-a603-d51cce5079a2}, ! Surface Rendering Name
  {458c60ea-0ec0-493f-aad0-1ff7833fe141}, ! Layer 1
  {726e8a4e-8fcf-445e-abba-3bc64eb5b135}, ! Layer 2
  {fc2c59fa-0cdb-4700-ab5c-38df0535a67c}, ! Layer 3
  {9d7a650f-da6a-4881-a717-5edacbdaa0ce}; ! Layer 4

OS:Construction,
  {20339495-9c02-4aed-98b8-38e46dd40704}, ! Handle
  ASHRAE_189.1-2009_ExtWall_Metal_ClimateZone 1-3, ! Name
  {9d5586b5-e32e-42e7-a198-6ecafb31470a}, ! Surface Rendering Name
  {f6dd568f-7c28-4915-ac2a-1736246738fe}, ! Layer 1
  {0a7b31a8-20f9-4a12-ad78-81e50f47954b}, ! Layer 2
  {9d7a650f-da6a-4881-a717-5edacbdaa0ce}; ! Layer 3

OS:Construction,
  {45deceb6-8440-4c0a-b270-4399110a749c}, ! Handle
  ASHRAE_189.1-2009_ExtWall_Metal_ClimateZone 4-8, ! Name
  {0c197177-e13d-4412-8416-dde49fa68031}, ! Surface Rendering Name
  {f6dd568f-7c28-4915-ac2a-1736246738fe}, ! Layer 1
  {0072dffd-abcf-454e-ba85-a23c368e8036}, ! Layer 2
  {9d7a650f-da6a-4881-a717-5edacbdaa0ce}; ! Layer 3

OS:Construction,
  {1e9b4d22-f8b7-4c67-b97c-fc2b4da763aa}, ! Handle
  ASHRAE_189.1-2009_ExtWall_SteelFrame_ClimateZone 1-3, ! Name
  {9d105fff-e8c8-461a-918b-4ec3269403a3}, ! Surface Rendering Name
  {59cfb43c-39e9-4619-a33c-39020c5ae3a3}, ! Layer 1
  {e65c4619-5cf8-4622-a78e-d4578a036ce6}, ! Layer 2
  {9d7a650f-da6a-4881-a717-5edacbdaa0ce}; ! Layer 3

OS:Construction,
  {d650a640-1cc5-4828-a810-50f737f1f667}, ! Handle
  ASHRAE_189.1-2009_ExtWall_SteelFrame_ClimateZone 4-8, ! Name
  {b65163c3-2332-4741-ad71-fdb4c6a0c120}, ! Surface Rendering Name
  {59cfb43c-39e9-4619-a33c-39020c5ae3a3}, ! Layer 1
  {948dd22c-832a-471b-975e-3584110daa5a}, ! Layer 2
  {9d7a650f-da6a-4881-a717-5edacbdaa0ce}; ! Layer 3

OS:Construction,
  {4110bc94-a9f5-4d0a-9d8a-869ceb63b4e1}, ! Handle
  ASHRAE_189.1-2009_ExtWall_WoodFrame_ClimateZone 1-4, ! Name
  {a6d7b179-ca46-4982-8deb-413ac14bc880}, ! Surface Rendering Name
  {bfcce25a-8cb5-4e8d-9718-5410cf07477e}, ! Layer 1
  {275d8f83-6e82-4931-b9a1-519f64b3a862}, ! Layer 2
  {9d7a650f-da6a-4881-a717-5edacbdaa0ce}; ! Layer 3

OS:Construction,
  {8f670027-3ed4-4b2a-95d8-974d5ca3ae3f}, ! Handle
  ASHRAE_189.1-2009_ExtWall_WoodFrame_ClimateZone 5, ! Name
  {42e6499d-6fb4-444b-9528-6a958aa0e979}, ! Surface Rendering Name
  {bfcce25a-8cb5-4e8d-9718-5410cf07477e}, ! Layer 1
  {ed031741-5752-4ae7-a616-9c96f08de3f0}, ! Layer 2
  {9d7a650f-da6a-4881-a717-5edacbdaa0ce}; ! Layer 3

OS:Construction,
  {303d0a81-6b01-43fd-b01d-f1c78f98ba9d}, ! Handle
  ASHRAE_189.1-2009_ExtWall_WoodFrame_ClimateZone 6-8, ! Name
  {688536f5-2eaf-4747-a1b9-ac260654025f}, ! Surface Rendering Name
  {bfcce25a-8cb5-4e8d-9718-5410cf07477e}, ! Layer 1
  {86c7c13a-a53c-4a33-a904-8be639b98fa2}, ! Layer 2
  {9d7a650f-da6a-4881-a717-5edacbdaa0ce}; ! Layer 3

OS:Construction,
  {8cebe71e-55d2-4231-8224-0f7fbb4c7501}, ! Handle
  ASHRAE_189.1-2009_ExtWindow_ClimateZone 1, ! Name
  {63f11e63-5db4-488b-b729-bbcb248c1610}, ! Surface Rendering Name
  {2ea7a273-c4d2-4fd2-b314-89bca872f240}; ! Layer 1

OS:Construction,
  {3103b2a2-5aa6-4fe5-aaa6-3510a2354292}, ! Handle
  ASHRAE_189.1-2009_ExtWindow_ClimateZone 2, ! Name
  {7c7fe410-6dff-490e-8723-01eee6589c63}, ! Surface Rendering Name
  {9a4ddde6-0428-4e59-a3e8-71f9315a15b2}; ! Layer 1

OS:Construction,
  {0102c141-2a45-4a6f-8ab7-0aadb64e7475}, ! Handle
  ASHRAE_189.1-2009_ExtWindow_ClimateZone 3, ! Name
  {6c81eed1-35c2-4646-93f7-4b24cfea12b0}, ! Surface Rendering Name
  {13b6aac8-7853-4157-98a6-642c8e935743}; ! Layer 1

OS:Construction,
  {476bda26-7e4a-4312-8e54-ac3e4cfadab0}, ! Handle
  ASHRAE_189.1-2009_ExtWindow_ClimateZone 4-5, ! Name
  {0e982091-9ac3-450b-982a-82beac2c26a1}, ! Surface Rendering Name
  {cd47089f-d9a7-459f-8dfa-032498175a02}; ! Layer 1

OS:Construction,
  {2512851a-42b0-4909-9158-cc20b02c49b7}, ! Handle
  ASHRAE_189.1-2009_ExtWindow_ClimateZone 6, ! Name
  {bc6111e9-09ab-4a25-9cf3-c65b2db77445}, ! Surface Rendering Name
  {7187de8b-0df8-46ce-86e5-b241dc09deed}; ! Layer 1

OS:Construction,
  {171622be-5e2c-475c-a2d0-934941a4722f}, ! Handle
  ASHRAE_189.1-2009_ExtWindow_ClimateZone 7-8, ! Name
  {efb3fb9a-aa7a-46b2-a5f9-f17d5b351fa6}, ! Surface Rendering Name
  {dc362cfe-b5e3-410f-a9bd-675db2ee5a8a}; ! Layer 1

OS:Construction,
  {6c574b52-b8e1-4d5a-bb06-1a4e6ef44eac}, ! Handle
  ASHRAE_189.1-2009_ExtWindow_ClimateZone_alt-res 4-5, ! Name
  {1bc72cbf-99ec-461b-a460-342ea1b8a7b1}, ! Surface Rendering Name
  {7187de8b-0df8-46ce-86e5-b241dc09deed}; ! Layer 1

OS:Construction,
  {cd678e6b-694b-4e0c-b553-6a4b6c6078b7}, ! Handle
  ASHRAE_90.1-2004_AtticFloor_ClimateZone 1-5, ! Name
  {0ebc9839-da0f-4038-b896-db4eb5e7680b}, ! Surface Rendering Name
  {9d7a650f-da6a-4881-a717-5edacbdaa0ce}, ! Layer 1
  {3da2fd05-cde9-4d6c-809d-f6a163e70f08}, ! Layer 2
  {9d7a650f-da6a-4881-a717-5edacbdaa0ce}; ! Layer 3

OS:Construction,
  {989760b3-91a7-4184-84c6-e3dc761ca005}, ! Handle
  ASHRAE_90.1-2004_AtticFloor_ClimateZone 6-8, ! Name
  {17076021-4b58-4030-bc5d-5428772852a1}, ! Surface Rendering Name
  {9d7a650f-da6a-4881-a717-5edacbdaa0ce}, ! Layer 1
  {843d723b-6005-4f7b-8a8e-3eba48a9a264}, ! Layer 2
  {9d7a650f-da6a-4881-a717-5edacbdaa0ce}; ! Layer 3

OS:Construction,
  {0fa50520-3c17-41b6-b726-52a1146c3c99}, ! Handle
  ASHRAE_90.1-2004_ExtRoof_IEAD_ClimateZone 1-4, ! Name
  {8b8ce90d-9061-4a66-99a1-92d6074556c8}, ! Surface Rendering Name
  {73f1746f-75d1-4841-9ff2-6f18ba02d0e6}, ! Layer 1
  {5b5d7175-5f5d-41f5-9e1c-6f9f4cb3ace4}, ! Layer 2
  {20afd4d9-ded7-43d1-8865-34e724b1b60c}; ! Layer 3

OS:Construction,
  {3c24cdd6-28fd-436e-b764-c500e6fc8ce3}, ! Handle
  ASHRAE_90.1-2004_ExtRoof_IEAD_ClimateZone 5-6, ! Name
  {769d493a-6998-4c3d-be23-376a2260e519}, ! Surface Rendering Name
  {73f1746f-75d1-4841-9ff2-6f18ba02d0e6}, ! Layer 1
  {0fe1c152-fd1f-4ede-a302-00bb919de35a}, ! Layer 2
  {20afd4d9-ded7-43d1-8865-34e724b1b60c}; ! Layer 3

OS:Construction,
  {759086c3-59fa-4ca1-b2ff-3509fd89d1bb}, ! Handle
  ASHRAE_90.1-2004_ExtRoof_IEAD_ClimateZone 7, ! Name
  {e1eef1fa-1634-400c-8b0b-4d2568eb9e1b}, ! Surface Rendering Name
  {73f1746f-75d1-4841-9ff2-6f18ba02d0e6}, ! Layer 1
  {5b5d7175-5f5d-41f5-9e1c-6f9f4cb3ace4}, ! Layer 2
  {20afd4d9-ded7-43d1-8865-34e724b1b60c}; ! Layer 3

OS:Construction,
  {e5760002-826e-4c81-b6fd-4a88104e8f61}, ! Handle
  ASHRAE_90.1-2004_ExtRoof_IEAD_ClimateZone 8, ! Name
  {9d24a2b6-b5a1-40ae-87ec-ac510757347c}, ! Surface Rendering Name
  {73f1746f-75d1-4841-9ff2-6f18ba02d0e6}, ! Layer 1
  {b3c18ad2-8592-44b9-b09a-575f02039833}, ! Layer 2
  {20afd4d9-ded7-43d1-8865-34e724b1b60c}; ! Layer 3

OS:Construction,
  {165ebc4a-0c25-4b6e-91cc-51bb5cf737a5}, ! Handle
  ASHRAE_90.1-2004_ExtRoof_Metal_ClimateZone 1, ! Name
  {139afcae-b1de-4b44-91aa-17fe1b09b2a3}, ! Surface Rendering Name
  {6a93f697-5db0-4c6d-88b0-9e6c63097b02}; ! Layer 1

OS:Construction,
  {114ca435-35f8-4ded-9af9-032a74dc39a6}, ! Handle
  ASHRAE_90.1-2004_ExtRoof_Metal_ClimateZone 2, ! Name
  {a42b646d-54cc-40f9-902a-935c242a1f3b}, ! Surface Rendering Name
  {6a93f697-5db0-4c6d-88b0-9e6c63097b02}, ! Layer 1
  {92dd9833-6ce4-4880-b986-44ab8c016e04}; ! Layer 2

OS:Construction,
  {19258a75-ff0e-4498-97ec-4c3bd54b1461}, ! Handle
  ASHRAE_90.1-2004_ExtRoof_Metal_ClimateZone 3-4, ! Name
  {c80caefd-01a0-4f91-9706-993f0ff114cb}, ! Surface Rendering Name
  {6a93f697-5db0-4c6d-88b0-9e6c63097b02}, ! Layer 1
  {4becc7f3-a998-4b07-8005-4b370b7e033e}; ! Layer 2

OS:Construction,
  {ab4424a7-79cc-45a3-add5-e747b45bf5d5}, ! Handle
  ASHRAE_90.1-2004_ExtRoof_Metal_ClimateZone 5-6, ! Name
  {ffe4876b-5663-45bd-9297-c7920f218b4c}, ! Surface Rendering Name
  {6a93f697-5db0-4c6d-88b0-9e6c63097b02}, ! Layer 1
  {a6773821-1f38-4d78-ae45-98c549ce0eb5}; ! Layer 2

OS:Construction,
  {5285e3f9-d922-43e1-8acc-c2c533d4af0f}, ! Handle
  ASHRAE_90.1-2004_ExtRoof_Metal_ClimateZone 7, ! Name
  {05360087-9206-4aa0-9238-294764dfdce7}, ! Surface Rendering Name
  {6a93f697-5db0-4c6d-88b0-9e6c63097b02}, ! Layer 1
  {4becc7f3-a998-4b07-8005-4b370b7e033e}; ! Layer 2

OS:Construction,
  {8bb0ff28-1fd4-4a74-91e6-deafc6615039}, ! Handle
  ASHRAE_90.1-2004_ExtRoof_Metal_ClimateZone 8, ! Name
  {65ca8dd0-eb5a-45ab-b6fd-66deecd3d6c5}, ! Surface Rendering Name
  {6a93f697-5db0-4c6d-88b0-9e6c63097b02}, ! Layer 1
  {700bb4b5-b20d-47d6-96bc-83a1621ed5e0}; ! Layer 2

OS:Construction,
  {693432ff-0f46-45e3-8055-1be58ddc7b77}, ! Handle
  ASHRAE_90.1-2004_ExtWall_Mass_ClimateZone 1-2, ! Name
  {05510b58-f114-408f-a5c1-bdd28c098f28}, ! Surface Rendering Name
  {458c60ea-0ec0-493f-aad0-1ff7833fe141}, ! Layer 1
  {e2c10280-d962-4a1a-9f22-0a2ea5a5dc13}, ! Layer 2
  {9d7a650f-da6a-4881-a717-5edacbdaa0ce}; ! Layer 3

OS:Construction,
  {c14c4fbc-5bda-483f-b283-fce1eca3a0f0}, ! Handle
  ASHRAE_90.1-2004_ExtWall_Mass_ClimateZone 3-4, ! Name
  {9a90959a-7d70-4ea1-888b-57286c2a0d83}, ! Surface Rendering Name
  {458c60ea-0ec0-493f-aad0-1ff7833fe141}, ! Layer 1
  {e2c10280-d962-4a1a-9f22-0a2ea5a5dc13}, ! Layer 2
  {a782db34-82a4-4c25-a853-17dfa54894ec}, ! Layer 3
  {9d7a650f-da6a-4881-a717-5edacbdaa0ce}; ! Layer 4

OS:Construction,
  {743db2d4-f8c6-42d7-86ab-ed334ce6d11d}, ! Handle
  ASHRAE_90.1-2004_ExtWall_Mass_ClimateZone 5, ! Name
  {174508cc-f111-4236-8c91-58faeb5915a4}, ! Surface Rendering Name
  {458c60ea-0ec0-493f-aad0-1ff7833fe141}, ! Layer 1
  {e2c10280-d962-4a1a-9f22-0a2ea5a5dc13}, ! Layer 2
  {a7b9a637-e06b-4ac1-bd60-06231345b50b}, ! Layer 3
  {9d7a650f-da6a-4881-a717-5edacbdaa0ce}; ! Layer 4

OS:Construction,
  {9aa95e7e-e938-4ee2-9627-037c1c05717c}, ! Handle
  ASHRAE_90.1-2004_ExtWall_Mass_ClimateZone 6, ! Name
  {511062bd-d23f-49d6-9f3b-b7f31bd397f8}, ! Surface Rendering Name
  {458c60ea-0ec0-493f-aad0-1ff7833fe141}, ! Layer 1
  {e2c10280-d962-4a1a-9f22-0a2ea5a5dc13}, ! Layer 2
  {e695f31a-aac1-4e02-a580-6140b80630d3}, ! Layer 3
  {9d7a650f-da6a-4881-a717-5edacbdaa0ce}; ! Layer 4

OS:Construction,
  {fae8bf90-b4c0-4f73-8467-dc3f72661bf1}, ! Handle
  ASHRAE_90.1-2004_ExtWall_Mass_ClimateZone 7, ! Name
  {d7c14e19-0716-4e21-ae8d-f39fe7ba1ee3}, ! Surface Rendering Name
  {458c60ea-0ec0-493f-aad0-1ff7833fe141}, ! Layer 1
  {e2c10280-d962-4a1a-9f22-0a2ea5a5dc13}, ! Layer 2
  {7b12110c-3e25-4cd4-ac3b-9dd6e47e5050}, ! Layer 3
  {9d7a650f-da6a-4881-a717-5edacbdaa0ce}; ! Layer 4

OS:Construction,
  {8f901525-a835-48cb-b3ac-30394a2190eb}, ! Handle
  ASHRAE_90.1-2004_ExtWall_Mass_ClimateZone 8, ! Name
  {57332251-8c26-4cbf-8186-03b2356c21ad}, ! Surface Rendering Name
  {458c60ea-0ec0-493f-aad0-1ff7833fe141}, ! Layer 1
  {e2c10280-d962-4a1a-9f22-0a2ea5a5dc13}, ! Layer 2
  {2274a744-e0b4-4ff6-88dc-eabfae471a86}, ! Layer 3
  {9d7a650f-da6a-4881-a717-5edacbdaa0ce}; ! Layer 4

OS:Construction,
  {25e2b5b1-dde3-4875-bf4d-d85069dbc826}, ! Handle
  ASHRAE_90.1-2004_ExtWall_Mass_ClimateZone_alt-res 1-2, ! Name
  {6cafb3f3-b1dc-45f7-b94d-403368394ed2}, ! Surface Rendering Name
  {458c60ea-0ec0-493f-aad0-1ff7833fe141}, ! Layer 1
  {e2c10280-d962-4a1a-9f22-0a2ea5a5dc13}, ! Layer 2
  {a782db34-82a4-4c25-a853-17dfa54894ec}, ! Layer 3
  {9d7a650f-da6a-4881-a717-5edacbdaa0ce}; ! Layer 4

OS:Construction,
  {8564f337-21ff-414c-911c-c6d7b4aed473}, ! Handle
  ASHRAE_90.1-2004_ExtWall_Mass_ClimateZone_alt-res 3, ! Name
  {44678393-4922-40c9-aed7-fad5f34a9693}, ! Surface Rendering Name
  {458c60ea-0ec0-493f-aad0-1ff7833fe141}, ! Layer 1
  {e2c10280-d962-4a1a-9f22-0a2ea5a5dc13}, ! Layer 2
  {a7b9a637-e06b-4ac1-bd60-06231345b50b}, ! Layer 3
  {9d7a650f-da6a-4881-a717-5edacbdaa0ce}; ! Layer 4

OS:Construction,
  {7975e2a4-ce13-4d7f-bdab-9f43a937c765}, ! Handle
  ASHRAE_90.1-2004_ExtWall_Mass_ClimateZone_alt-res 4, ! Name
  {7b9f2d2a-c513-465b-b6ad-4d5153b26663}, ! Surface Rendering Name
  {458c60ea-0ec0-493f-aad0-1ff7833fe141}, ! Layer 1
  {e2c10280-d962-4a1a-9f22-0a2ea5a5dc13}, ! Layer 2
  {e695f31a-aac1-4e02-a580-6140b80630d3}, ! Layer 3
  {9d7a650f-da6a-4881-a717-5edacbdaa0ce}; ! Layer 4

OS:Construction,
  {1e61fbb2-1d87-4d2a-a40b-b53b7bae77df}, ! Handle
  ASHRAE_90.1-2004_ExtWall_Mass_ClimateZone_alt-res 5-6, ! Name
  {d19a3b39-50ba-46bd-bdda-de2479a26ba3}, ! Surface Rendering Name
  {458c60ea-0ec0-493f-aad0-1ff7833fe141}, ! Layer 1
  {e2c10280-d962-4a1a-9f22-0a2ea5a5dc13}, ! Layer 2
  {7b12110c-3e25-4cd4-ac3b-9dd6e47e5050}, ! Layer 3
  {9d7a650f-da6a-4881-a717-5edacbdaa0ce}; ! Layer 4

OS:Construction,
  {ae403f70-80c6-424a-bf28-6d1519620264}, ! Handle
  ASHRAE_90.1-2004_ExtWall_Mass_ClimateZone_alt-res 7, ! Name
  {945269ee-03b4-4c31-b7e4-2b1fcfe5ef06}, ! Surface Rendering Name
  {458c60ea-0ec0-493f-aad0-1ff7833fe141}, ! Layer 1
  {e2c10280-d962-4a1a-9f22-0a2ea5a5dc13}, ! Layer 2
  {2274a744-e0b4-4ff6-88dc-eabfae471a86}, ! Layer 3
  {9d7a650f-da6a-4881-a717-5edacbdaa0ce}; ! Layer 4

OS:Construction,
  {f00f5516-036d-4fed-a958-44d9152cfff8}, ! Handle
  ASHRAE_90.1-2004_ExtWall_Mass_ClimateZone_alt-res 8, ! Name
  {6d1e1f51-edf9-4332-a03d-8ac8018f17c1}, ! Surface Rendering Name
  {458c60ea-0ec0-493f-aad0-1ff7833fe141}, ! Layer 1
  {e2c10280-d962-4a1a-9f22-0a2ea5a5dc13}, ! Layer 2
  {26db3eb3-1068-47c8-801d-c9ea5f96f097}, ! Layer 3
  {9d7a650f-da6a-4881-a717-5edacbdaa0ce}; ! Layer 4

OS:Construction,
  {7e8c8909-869e-4787-a454-b022a4615835}, ! Handle
  ASHRAE_90.1-2004_ExtWall_Metal_ClimateZone 1, ! Name
  {d00cb599-3adf-4301-baa2-cd40c8c86eb1}, ! Surface Rendering Name
  {f6dd568f-7c28-4915-ac2a-1736246738fe}, ! Layer 1
  {9d7a650f-da6a-4881-a717-5edacbdaa0ce}; ! Layer 2

OS:Construction,
  {5703b32d-d629-49f3-a312-a6f01194941c}, ! Handle
  ASHRAE_90.1-2004_ExtWall_Metal_ClimateZone 2-3, ! Name
  {c4cb7c83-877e-4eee-abea-2d4f96aa2904}, ! Surface Rendering Name
  {f6dd568f-7c28-4915-ac2a-1736246738fe}, ! Layer 1
  {e52071f5-dbeb-4538-be39-71d7b9009fd1}, ! Layer 2
  {9d7a650f-da6a-4881-a717-5edacbdaa0ce}; ! Layer 3

OS:Construction,
  {9889a8bc-b9f4-446b-9f30-c6c051494f35}, ! Handle
  ASHRAE_90.1-2004_ExtWall_Metal_ClimateZone 4, ! Name
  {0e2840d9-6455-41fb-83d7-f89a3c75ae46}, ! Surface Rendering Name
  {f6dd568f-7c28-4915-ac2a-1736246738fe}, ! Layer 1
  {5dc179ed-38ae-4eb9-af14-e4245f9f2d6e}, ! Layer 2
  {9d7a650f-da6a-4881-a717-5edacbdaa0ce}; ! Layer 3

OS:Construction,
  {74589afa-ab24-45eb-aa34-bfe8702995c5}, ! Handle
  ASHRAE_90.1-2004_ExtWall_Metal_ClimateZone 5, ! Name
  {07bbd6b4-a4d9-4b9c-9ed6-31ace4c5cbf8}, ! Surface Rendering Name
  {f6dd568f-7c28-4915-ac2a-1736246738fe}, ! Layer 1
  {01935acb-997b-497e-b3a8-04dbb1beb1b8}, ! Layer 2
  {9d7a650f-da6a-4881-a717-5edacbdaa0ce}; ! Layer 3

OS:Construction,
  {e1e27d31-4a45-455b-a57b-7dca408ab9ca}, ! Handle
  ASHRAE_90.1-2004_ExtWall_Metal_ClimateZone 6-8, ! Name
  {7fccad2e-cb7f-468a-bc47-a8473c2e3482}, ! Surface Rendering Name
  {f6dd568f-7c28-4915-ac2a-1736246738fe}, ! Layer 1
  {8daebee1-24cf-40dd-a0d7-3c868ead06aa}, ! Layer 2
  {9d7a650f-da6a-4881-a717-5edacbdaa0ce}; ! Layer 3

OS:Construction,
  {f393b6ee-4ba2-4ede-a275-8533ddc3800e}, ! Handle
  ASHRAE_90.1-2004_ExtWall_SteelFrame_ClimateZone 1-4, ! Name
  {e0adcbd5-a2d0-4edb-bf68-23d56d11629d}, ! Surface Rendering Name
  {bfcce25a-8cb5-4e8d-9718-5410cf07477e}, ! Layer 1
  {4829416a-42ad-44d0-8086-cda21f574e8a}, ! Layer 2
  {9d7a650f-da6a-4881-a717-5edacbdaa0ce}; ! Layer 3

OS:Construction,
  {9daf37fd-5766-465c-b3a2-80b125b4d3a2}, ! Handle
  ASHRAE_90.1-2004_ExtWall_SteelFrame_ClimateZone 5-6, ! Name
  {bf42d186-bfc2-4953-b830-d291ec76f065}, ! Surface Rendering Name
  {bfcce25a-8cb5-4e8d-9718-5410cf07477e}, ! Layer 1
  {05525459-d60f-42e3-bf69-ae1bfe6d9973}, ! Layer 2
  {9d7a650f-da6a-4881-a717-5edacbdaa0ce}; ! Layer 3

OS:Construction,
  {07ee1c98-49c3-4473-ba13-9c9c30df39fa}, ! Handle
  ASHRAE_90.1-2004_ExtWall_SteelFrame_ClimateZone 7-8, ! Name
  {5d0ccabd-6a6b-4471-a150-2e2c3b901cd0}, ! Surface Rendering Name
  {bfcce25a-8cb5-4e8d-9718-5410cf07477e}, ! Layer 1
  {736cf8e2-3636-4ca6-be9d-86a64e8c330f}, ! Layer 2
  {9d7a650f-da6a-4881-a717-5edacbdaa0ce}; ! Layer 3
