
OS:Version,
  {6419cd9b-792e-4cf4-b1c7-92a0c0c6c583}, !- Handle
  2.2.0;                                  !- Version Identifier

OS:Site,
  {9b00969e-867c-4dbf-9d37-8626d2ae71ce}, !- Handle
  Oak Ridge_TN_USA Design_Conditions,     !- Name
  35.96,                                  !- Latitude {deg}
  -84.29,                                 !- Longitude {deg}
  -5,                                     !- Time Zone {hr}
  334,                                    !- Elevation {m}
  Suburbs;                                !- Terrain

OS:SimulationControl,
  {6c635815-ef1b-4e4d-ba8d-c326bd43a5d8}, !- Handle
  Yes,                                    !- Do Zone Sizing Calculation
  Yes,                                    !- Do System Sizing Calculation
  No,                                     !- Do Plant Sizing Calculation
  No,                                     !- Run Simulation for Sizing Periods
  Yes,                                    !- Run Simulation for Weather File Run Periods
  0.04,                                   !- Loads Convergence Tolerance Value
  0.4,                                    !- Temperature Convergence Tolerance Value {deltaC}
  FullInteriorAndExterior,                !- Solar Distribution
  25,                                     !- Maximum Number of Warmup Days
  6;                                      !- Minimum Number of Warmup Days

OS:Material,
  {5d1e431e-3bbf-423d-85c7-94025dd6f2f0}, !- Handle
  GeoFoam,                                !- Name
  MediumRough,                            !- Roughness
  0.3048,                                 !- Thickness {m}
  0.033,                                  !- Conductivity {W/m-K}
  51.5,                                   !- Density {kg/m3}
  836.8,                                  !- Specific Heat {J/kg-K}
  0.9,                                    !- Thermal Absorptance
  0.7,                                    !- Solar Absorptance
  0.7;                                    !- Visible Absorptance

OS:Schedule:Compact,
  {6267ed18-d612-4c80-a26a-1d59dd0b7f32}, !- Handle
  Occupant Latent Schedule,               !- Name
  {fed30c6a-b8f4-4786-b9ba-816450af27bb}, !- Schedule Type Limits Name
  Through: 12/31,                         !- Field 1
  For: AllDays,                           !- Field 2
  Until: 24:00,                           !- Field 3
  0;                                      !- Field 4

OS:ScheduleTypeLimits,
  {fed30c6a-b8f4-4786-b9ba-816450af27bb}, !- Handle
  Fraction,                               !- Name
  0,                                      !- Lower Limit Value
  1,                                      !- Upper Limit Value
  CONTINUOUS;                             !- Numeric Type

OS:Surface,
  {a98bf88b-3568-40b7-8ab5-5d66396a2f80}, !- Handle
  Surface 5,                              !- Name
  Wall,                                   !- Surface Type
  {0a32c7e2-7c83-403a-9cc0-a80d58f88661}, !- Construction Name
  {848a46aa-afb3-49db-a756-f7958df2915f}, !- Space Name
  Outdoors,                               !- Outside Boundary Condition
  ,                                       !- Outside Boundary Condition Object
  SunExposed,                             !- Sun Exposure
  WindExposed,                            !- Wind Exposure
  ,                                       !- View Factor to Ground
  ,                                       !- Number of Vertices
  -0.953166521981, 4.318, 1.884065447608, !- X,Y,Z Vertex 1 {m}
  -0.953166521981, 4.318, -0.859134552392, !- X,Y,Z Vertex 2 {m}
  -0.953166521981, 0.3048, -0.859134552392, !- X,Y,Z Vertex 3 {m}
  -0.953166521981, 0.3048, 1.884065447608; !- X,Y,Z Vertex 4 {m}

OS:Construction,
  {0a32c7e2-7c83-403a-9cc0-a80d58f88661}, !- Handle
  2FRP_Ext_Wall,                          !- Name
  {16e64ab1-e018-40f7-9155-19368ffcfcaf}, !- Surface Rendering Name
  {ef49720b-478f-4d59-816e-431844b803e8}, !- Layer 1
  {4a740566-afdc-44ca-8b3f-34ad6ec589a3}, !- Layer 2
  {0cde478d-b1a1-4118-91af-40cc4b460316}, !- Layer 3
  {200895c0-f754-4254-b2cf-bf9ce47f8e66}, !- Layer 4
  {af607088-c770-4719-bef5-22327a283e7d}; !- Layer 5

OS:Material,
  {ef49720b-478f-4d59-816e-431844b803e8}, !- Handle
  ExtWall_FaceBrick,                      !- Name
  MediumRough,                            !- Roughness
  0.09207499,                             !- Thickness {m}
  1.31095104,                             !- Conductivity {W/m-K}
  2082.39892355994,                       !- Density {kg/m3}
  920.480000000001,                       !- Specific Heat {J/kg-K}
  0.9,                                    !- Thermal Absorptance
  0.7,                                    !- Solar Absorptance
  0.7;                                    !- Visible Absorptance

OS:Material:AirGap,
  {4a740566-afdc-44ca-8b3f-34ad6ec589a3}, !- Handle
  ExtWall_Air,                            !- Name
  0.156738072893066;                      !- Thermal Resistance {m2-K/W}

OS:Material,
  {0cde478d-b1a1-4118-91af-40cc4b460316}, !- Handle
  ExtWall_ConcreteBlock,                  !- Name
  Rough,                                  !- Roughness
  0.2032,                                 !- Thickness {m}
  1.311,                                  !- Conductivity {W/m-K}
  1121.291728,                            !- Density {kg/m3}
  836.8,                                  !- Specific Heat {J/kg-K}
  0.9,                                    !- Thermal Absorptance
  0.7,                                    !- Solar Absorptance
  0.7;                                    !- Visible Absorptance

OS:Material,
  {200895c0-f754-4254-b2cf-bf9ce47f8e66}, !- Handle
  ExtWall_R11_Insulation,                 !- Name
  MediumRough,                            !- Roughness
  0.0889,                                 !- Thickness {m}
  0.077868,                               !- Conductivity {W/m-K}
  9.61107195489204,                       !- Density {kg/m3}
  836.8,                                  !- Specific Heat {J/kg-K}
  0.9,                                    !- Thermal Absorptance
  0.7,                                    !- Solar Absorptance
  0.7;                                    !- Visible Absorptance

OS:Material,
  {af607088-c770-4719-bef5-22327a283e7d}, !- Handle
  ExtWall_Gypsum,                         !- Name
  Smooth,                                 !- Roughness
  0.015875,                               !- Thickness {m}
  0.16,                                   !- Conductivity {W/m-K}
  784.9,                                  !- Density {kg/m3}
  830,                                    !- Specific Heat {J/kg-K}
  0.9,                                    !- Thermal Absorptance
  0.92,                                   !- Solar Absorptance
  0.92;                                   !- Visible Absorptance

OS:ThermalZone,
  {b4e9785c-ddcb-4c31-9522-c703369ec21d}, !- Handle
  Room 203 Thermal Zone,                  !- Name
  1,                                      !- Multiplier
  ,                                       !- Ceiling Height {m}
  ,                                       !- Volume {m3}
  ,                                       !- Floor Area {m2}
  ,                                       !- Zone Inside Convection Algorithm
  ,                                       !- Zone Outside Convection Algorithm
  ,                                       !- Zone Conditioning Equipment List Name
  {b25d15bb-fd1a-47ab-b8bb-646225eae59b}, !- Zone Air Inlet Port List
  {27836caf-271a-48a0-aca0-8bc037038315}, !- Zone Air Exhaust Port List
  {12021d52-8e5d-4524-b15f-7a6576d6b4c1}, !- Zone Air Node Name
  ,                                       !- Zone Return Air Node Name
  ,                                       !- Primary Daylighting Control Name
  ,                                       !- Fraction of Zone Controlled by Primary Daylighting Control
  ,                                       !- Secondary Daylighting Control Name
  ,                                       !- Fraction of Zone Controlled by Secondary Daylighting Control
  ,                                       !- Illuminance Map Name
  {88c8dbc4-c872-425e-b14b-6bb2d5cb9c1b}, !- Group Rendering Name
  {5f02a937-f088-4c98-a4bc-43f19b8d60a1}, !- Thermostat Name
  No;                                     !- Use Ideal Air Loads

OS:Node,
  {ae1771d7-4c8b-4255-a3e2-a49ef4e00748}, !- Handle
  {d39d28c2-8020-4024-ad39-fe67f3e34d1c}, !- Name
  {12021d52-8e5d-4524-b15f-7a6576d6b4c1}, !- Inlet Port
  ;                                       !- Outlet Port

OS:Connection,
  {12021d52-8e5d-4524-b15f-7a6576d6b4c1}, !- Handle
  {7867b75d-c567-46ed-b5ee-4776fdc5f0bd}, !- Name
  {b4e9785c-ddcb-4c31-9522-c703369ec21d}, !- Source Object
  11,                                     !- Outlet Port
  {ae1771d7-4c8b-4255-a3e2-a49ef4e00748}, !- Target Object
  2;                                      !- Inlet Port

OS:PortList,
  {b25d15bb-fd1a-47ab-b8bb-646225eae59b}, !- Handle
  {e63934d9-b068-4478-9d0a-8838a1303b07}, !- Name
  {b4e9785c-ddcb-4c31-9522-c703369ec21d}; !- HVAC Component

OS:PortList,
  {27836caf-271a-48a0-aca0-8bc037038315}, !- Handle
  {ea2162b9-3338-4f46-81b0-62f294f71906}, !- Name
  {b4e9785c-ddcb-4c31-9522-c703369ec21d}; !- HVAC Component

OS:Sizing:Zone,
  {236a3c38-5ac7-43b2-9ed7-ef26b2660847}, !- Handle
  {b4e9785c-ddcb-4c31-9522-c703369ec21d}, !- Zone or ZoneList Name
  SupplyAirTemperature,                   !- Zone Cooling Design Supply Air Temperature Input Method
  14.4444444444444,                       !- Zone Cooling Design Supply Air Temperature {C}
  11.11,                                  !- Zone Cooling Design Supply Air Temperature Difference {deltaC}
  SupplyAirTemperature,                   !- Zone Heating Design Supply Air Temperature Input Method
  48.8888888888889,                       !- Zone Heating Design Supply Air Temperature {C}
  11.11,                                  !- Zone Heating Design Supply Air Temperature Difference {deltaC}
  0.0085,                                 !- Zone Cooling Design Supply Air Humidity Ratio {kg-H2O/kg-air}
  0.008,                                  !- Zone Heating Design Supply Air Humidity Ratio {kg-H2O/kg-air}
  ,                                       !- Zone Heating Sizing Factor
  ,                                       !- Zone Cooling Sizing Factor
  Flow/Zone,                              !- Cooling Design Air Flow Method
  0.1179868608,                           !- Cooling Design Air Flow Rate {m3/s}
  ,                                       !- Cooling Minimum Air Flow per Zone Floor Area {m3/s-m2}
  ,                                       !- Cooling Minimum Air Flow {m3/s}
  0,                                      !- Cooling Minimum Air Flow Fraction
  DesignDay,                              !- Heating Design Air Flow Method
  0.0707921164800002,                     !- Heating Design Air Flow Rate {m3/s}
  ,                                       !- Heating Maximum Air Flow per Zone Floor Area {m3/s-m2}
  ,                                       !- Heating Maximum Air Flow {m3/s}
  0,                                      !- Heating Maximum Air Flow Fraction
  1,                                      !- Design Zone Air Distribution Effectiveness in Cooling Mode
  1,                                      !- Design Zone Air Distribution Effectiveness in Heating Mode
  No,                                     !- Account for Dedicated Outdoor Air System
  NeutralSupplyAir,                       !- Dedicated Outdoor Air System Control Strategy
  autosize,                               !- Dedicated Outdoor Air Low Setpoint Temperature for Design {C}
  autosize;                               !- Dedicated Outdoor Air High Setpoint Temperature for Design {C}

OS:ZoneHVAC:EquipmentList,
  {95229fc3-3d26-4467-8490-662418ad5bf6}, !- Handle
  {095f488e-2d89-40bb-b114-c8c03a16041a}, !- Name
  {b4e9785c-ddcb-4c31-9522-c703369ec21d}; !- Thermal Zone

OS:Space,
  {848a46aa-afb3-49db-a756-f7958df2915f}, !- Handle
  Room 203,                               !- Name
  ,                                       !- Space Type Name
  ,                                       !- Default Construction Set Name
  ,                                       !- Default Schedule Set Name
  -0,                                     !- Direction of Relative North {deg}
  8.2683665219811,                        !- X Origin {m}
  8.4836,                                 !- Y Origin {m}
  4.92313455239229,                       !- Z Origin {m}
  ,                                       !- Building Story Name
  {b4e9785c-ddcb-4c31-9522-c703369ec21d}, !- Thermal Zone Name
  ,                                       !- Part of Total Floor Area
  {a9cc20ad-4a88-4192-b0b2-cae2779d9a72}; !- Design Specification Outdoor Air Object Name

OS:ThermostatSetpoint:DualSetpoint,
  {5f02a937-f088-4c98-a4bc-43f19b8d60a1}, !- Handle
  Thermostat Dual SP Control,             !- Name
  {7f53db63-9653-4a5f-8b67-86db9ce6f199}, !- Heating Setpoint Temperature Schedule Name
  {766f18df-b27e-45da-9cd2-b8ad6bb3704a}; !- Cooling Setpoint Temperature Schedule Name

OS:Schedule:Compact,
  {7f53db63-9653-4a5f-8b67-86db9ce6f199}, !- Handle
  Heating Schedule,                       !- Name
  {bf2e878f-4b99-42f0-809f-675edd33a749}, !- Schedule Type Limits Name
  Through: 12/31,                         !- Field 1
  For: Weekdays,                          !- Field 2
  Until: 06:00,                           !- Field 3
  15,                                     !- Field 4
  Until: 18:00,                           !- Field 5
  21.11,                                  !- Field 6
  Until 24:00,                            !- Field 7
  15,                                     !- Field 8
  For: SummerDesignDay,                   !- Field 9
  Until: 24:00,                           !- Field 10
  21.11,                                  !- Field 11
  For: Saturday,                          !- Field 12
  Until: 06:00,                           !- Field 13
  15,                                     !- Field 14
  Until: 18:00,                           !- Field 15
  21.11,                                  !- Field 16
  Until 24:00,                            !- Field 17
  15,                                     !- Field 18
  For: WinterDesignDay,                   !- Field 19
  Until: 24:00,                           !- Field 20
  21.11,                                  !- Field 21
  For: Sunday Holidays AllOtherDays,      !- Field 22
  Until: 06:00,                           !- Field 23
  15,                                     !- Field 24
  Until: 18:00,                           !- Field 25
  21.11,                                  !- Field 26
  Until 24:00,                            !- Field 27
  15;                                     !- Field 28

OS:ScheduleTypeLimits,
  {bf2e878f-4b99-42f0-809f-675edd33a749}, !- Handle
  Temperature,                            !- Name
  -60,                                    !- Lower Limit Value
  200,                                    !- Upper Limit Value
  CONTINUOUS,                             !- Numeric Type
  temperature;                            !- Unit Type

OS:Schedule:Compact,
  {766f18df-b27e-45da-9cd2-b8ad6bb3704a}, !- Handle
  Cooling Schedule,                       !- Name
  {bf2e878f-4b99-42f0-809f-675edd33a749}, !- Schedule Type Limits Name
  Through: 12/31,                         !- Field 1
  For: Weekdays,                          !- Field 2
  Until: 06:00,                           !- Field 3
  31.7,                                   !- Field 4
  Until: 18:00,                           !- Field 5
  23.9,                                   !- Field 6
  Until 24:00,                            !- Field 7
  31.7,                                   !- Field 8
  For: SummerDesignDay,                   !- Field 9
  Until: 24:00,                           !- Field 10
  23.9,                                   !- Field 11
  For: Saturday,                          !- Field 12
  Until: 06:00,                           !- Field 13
  31.7,                                   !- Field 14
  Until: 18:00,                           !- Field 15
  23.9,                                   !- Field 16
  Until 24:00,                            !- Field 17
  31.7,                                   !- Field 18
  For: WinterDesignDay,                   !- Field 19
  Until: 24:00,                           !- Field 20
  23.9,                                   !- Field 21
  For: Sunday Holidays AllOtherDays,      !- Field 22
  Until: 06:00,                           !- Field 23
  31.7,                                   !- Field 24
  Until: 18:00,                           !- Field 25
  23.9,                                   !- Field 26
  Until 24:00,                            !- Field 27
  31.7;                                   !- Field 28

OS:Lights:Definition,
  {dcc47d3d-ff07-4f35-864a-4c71d1867343}, !- Handle
  General Lighting_4 Definition,          !- Name
  Watts/Area,                             !- Design Level Calculation Method
  ,                                       !- Lighting Level {W}
  8.13291730819573,                       !- Watts per Space Floor Area {W/m2}
  ,                                       !- Watts per Person {W/person}
  ,                                       !- Fraction Radiant
  ,                                       !- Fraction Visible
  ,                                       !- Return Air Fraction
  No;                                     !- Return Air Fraction Calculated from Plenum Temperature

OS:Lights,
  {f0350b37-f008-428b-98f8-beeff31f039b}, !- Handle
  General Lighting_4,                     !- Name
  {dcc47d3d-ff07-4f35-864a-4c71d1867343}, !- Lights Definition Name
  {53b2abe6-e6c0-4582-aad4-8464b16316d6}, !- Space or SpaceType Name
  {a30918a5-d4c9-413e-946e-ee79f918c144}, !- Schedule Name
  1,                                      !- Fraction Replaceable
  ,                                       !- Multiplier
  General;                                !- End-Use Subcategory

OS:ThermalZone,
  {7c30f8f7-48fa-4d41-8a47-6fd08a5a7202}, !- Handle
  Room 204 Thermal Zone,                  !- Name
  ,                                       !- Multiplier
  ,                                       !- Ceiling Height {m}
  ,                                       !- Volume {m3}
  ,                                       !- Floor Area {m2}
  ,                                       !- Zone Inside Convection Algorithm
  ,                                       !- Zone Outside Convection Algorithm
  ,                                       !- Zone Conditioning Equipment List Name
  {b325b5d8-be6f-4635-b3f4-01fe3564d1e2}, !- Zone Air Inlet Port List
  {a4a17ff2-51d0-4090-9661-78512c454a2a}, !- Zone Air Exhaust Port List
  {6d7bf33b-e430-41d6-9a61-db4f7a2d7a53}, !- Zone Air Node Name
  ,                                       !- Zone Return Air Node Name
  ,                                       !- Primary Daylighting Control Name
  ,                                       !- Fraction of Zone Controlled by Primary Daylighting Control
  ,                                       !- Secondary Daylighting Control Name
  ,                                       !- Fraction of Zone Controlled by Secondary Daylighting Control
  ,                                       !- Illuminance Map Name
  {09c01346-cd48-4334-aaf6-67fb530d99a7}, !- Group Rendering Name
  {e3f6f0cc-e2f8-4484-ba60-e02959c9a711}, !- Thermostat Name
  No;                                     !- Use Ideal Air Loads

OS:Node,
  {f9c2ba17-9913-4056-9cb6-67972efbae4d}, !- Handle
  {993a691d-1480-4267-bf00-439cf8c8f0d6}, !- Name
  {6d7bf33b-e430-41d6-9a61-db4f7a2d7a53}, !- Inlet Port
  ;                                       !- Outlet Port

OS:Connection,
  {6d7bf33b-e430-41d6-9a61-db4f7a2d7a53}, !- Handle
  {12feabb4-80e3-458d-b6c1-0e3ff4143287}, !- Name
  {7c30f8f7-48fa-4d41-8a47-6fd08a5a7202}, !- Source Object
  11,                                     !- Outlet Port
  {f9c2ba17-9913-4056-9cb6-67972efbae4d}, !- Target Object
  2;                                      !- Inlet Port

OS:PortList,
  {b325b5d8-be6f-4635-b3f4-01fe3564d1e2}, !- Handle
  {39fbb349-189a-44ce-985c-697f4a1c4ea1}, !- Name
  {7c30f8f7-48fa-4d41-8a47-6fd08a5a7202}; !- HVAC Component

OS:PortList,
  {a4a17ff2-51d0-4090-9661-78512c454a2a}, !- Handle
  {fb1cf726-14c5-49b3-b180-2c87ccd070a7}, !- Name
  {7c30f8f7-48fa-4d41-8a47-6fd08a5a7202}; !- HVAC Component

OS:Sizing:Zone,
  {fb4d7d5b-7775-4da4-a848-f5531c123561}, !- Handle
  {7c30f8f7-48fa-4d41-8a47-6fd08a5a7202}, !- Zone or ZoneList Name
  SupplyAirTemperature,                   !- Zone Cooling Design Supply Air Temperature Input Method
  14.4444444444444,                       !- Zone Cooling Design Supply Air Temperature {C}
  11.11,                                  !- Zone Cooling Design Supply Air Temperature Difference {deltaC}
  SupplyAirTemperature,                   !- Zone Heating Design Supply Air Temperature Input Method
  48.8888888888889,                       !- Zone Heating Design Supply Air Temperature {C}
  11.11,                                  !- Zone Heating Design Supply Air Temperature Difference {deltaC}
  0.0085,                                 !- Zone Cooling Design Supply Air Humidity Ratio {kg-H2O/kg-air}
  0.008,                                  !- Zone Heating Design Supply Air Humidity Ratio {kg-H2O/kg-air}
  ,                                       !- Zone Heating Sizing Factor
  ,                                       !- Zone Cooling Sizing Factor
  Flow/Zone,                              !- Cooling Design Air Flow Method
  0.283168465920001,                      !- Cooling Design Air Flow Rate {m3/s}
  ,                                       !- Cooling Minimum Air Flow per Zone Floor Area {m3/s-m2}
  ,                                       !- Cooling Minimum Air Flow {m3/s}
  0,                                      !- Cooling Minimum Air Flow Fraction
  DesignDay,                              !- Heating Design Air Flow Method
  0.174620553984,                         !- Heating Design Air Flow Rate {m3/s}
  ,                                       !- Heating Maximum Air Flow per Zone Floor Area {m3/s-m2}
  ,                                       !- Heating Maximum Air Flow {m3/s}
  0,                                      !- Heating Maximum Air Flow Fraction
  1,                                      !- Design Zone Air Distribution Effectiveness in Cooling Mode
  1,                                      !- Design Zone Air Distribution Effectiveness in Heating Mode
  No,                                     !- Account for Dedicated Outdoor Air System
  NeutralSupplyAir,                       !- Dedicated Outdoor Air System Control Strategy
  autosize,                               !- Dedicated Outdoor Air Low Setpoint Temperature for Design {C}
  autosize;                               !- Dedicated Outdoor Air High Setpoint Temperature for Design {C}

OS:ZoneHVAC:EquipmentList,
  {6b812bc4-c4c0-4e62-90fc-29c1f4632f24}, !- Handle
  {6f0527e9-5f70-4a7f-9188-fee7a3d69b73}, !- Name
  {7c30f8f7-48fa-4d41-8a47-6fd08a5a7202}; !- Thermal Zone

OS:Space,
  {53b2abe6-e6c0-4582-aad4-8464b16316d6}, !- Handle
  Room 204,                               !- Name
  ,                                       !- Space Type Name
  ,                                       !- Default Construction Set Name
  ,                                       !- Default Schedule Set Name
  -0,                                     !- Direction of Relative North {deg}
  1.44382283906452e-15,                   !- X Origin {m}
  1.44382283906452e-15,                   !- Y Origin {m}
  0,                                      !- Z Origin {m}
  ,                                       !- Building Story Name
  {7c30f8f7-48fa-4d41-8a47-6fd08a5a7202}, !- Thermal Zone Name
  ,                                       !- Part of Total Floor Area
  {f894bf87-b0cd-4a8c-b176-709f84441464}; !- Design Specification Outdoor Air Object Name

OS:ThermostatSetpoint:DualSetpoint,
  {e3f6f0cc-e2f8-4484-ba60-e02959c9a711}, !- Handle
  {d18b34a9-c159-4b37-b870-3eb6a5f005df}, !- Name
  {7f53db63-9653-4a5f-8b67-86db9ce6f199}, !- Heating Setpoint Temperature Schedule Name
  {766f18df-b27e-45da-9cd2-b8ad6bb3704a}; !- Cooling Setpoint Temperature Schedule Name

OS:Schedule:Compact,
  {a30918a5-d4c9-413e-946e-ee79f918c144}, !- Handle
  BLDG_LIGHT_Upst_SCH,                    !- Name
  {fed30c6a-b8f4-4786-b9ba-816450af27bb}, !- Schedule Type Limits Name
  Through: 12/31,                         !- Field 1
  For: AllDays,                           !- Field 2
  Until: 24:00,                           !- Field 3
  0.0;                                    !- Field 4

OS:WindowMaterial:SimpleGlazingSystem,
  {beef5e92-7f52-42ca-b072-7c32bbc5d86e}, !- Handle
  Double Pane,                            !- Name
  3.361531696,                            !- U-Factor {W/m2-K}
  0.623,                                  !- Solar Heat Gain Coefficient
  0.65;                                   !- Visible Transmittance

OS:Surface,
  {4d27f68f-26cc-47c3-9ed9-410c8c0d4ab6}, !- Handle
  Surface 6 Reversed,                     !- Name
  Wall,                                   !- Surface Type
  {ead50049-48c3-4592-8b34-410e816cd468}, !- Construction Name
  {9ef53a3f-2b7d-4796-8461-0f71a7ce2382}, !- Space Name
  Surface,                                !- Outside Boundary Condition
  {c92ef1a8-9637-4989-8d2d-31aedc508e15}, !- Outside Boundary Condition Object
  NoSun,                                  !- Sun Exposure
  NoWind,                                 !- Wind Exposure
  ,                                       !- View Factor to Ground
  ,                                       !- Number of Vertices
  5.4864, 4.0132, 2.7432,                 !- X,Y,Z Vertex 1 {m}
  5.4864, 4.0132, 0,                      !- X,Y,Z Vertex 2 {m}
  5.4864, 0, 0,                           !- X,Y,Z Vertex 3 {m}
  5.4864, 0, 2.7432;                      !- X,Y,Z Vertex 4 {m}

OS:Construction,
  {ead50049-48c3-4592-8b34-410e816cd468}, !- Handle
  INT_WALL,                               !- Name
  {ac0e171c-c1ce-4333-8153-ec60e30ee3fa}, !- Surface Rendering Name
  {17ddf836-a57f-41e3-acf5-8de59d43d267}, !- Layer 1
  {17ddf836-a57f-41e3-acf5-8de59d43d267}; !- Layer 2

OS:Material,
  {17ddf836-a57f-41e3-acf5-8de59d43d267}, !- Handle
  GP01 1/2 GYPSUM,                        !- Name
  Smooth,                                 !- Roughness
  0.0127,                                 !- Thickness {m}
  0.16,                                   !- Conductivity {W/m-K}
  800,                                    !- Density {kg/m3}
  1090,                                   !- Specific Heat {J/kg-K}
  0.9,                                    !- Thermal Absorptance
  0.7,                                    !- Solar Absorptance
  0.5;                                    !- Visible Absorptance

OS:ThermalZone,
  {d8a0f24d-22de-4b36-80b1-ce070fc70d51}, !- Handle
  Room 106 Thermal Zone,                  !- Name
  ,                                       !- Multiplier
  ,                                       !- Ceiling Height {m}
  ,                                       !- Volume {m3}
  ,                                       !- Floor Area {m2}
  ,                                       !- Zone Inside Convection Algorithm
  ,                                       !- Zone Outside Convection Algorithm
  ,                                       !- Zone Conditioning Equipment List Name
  {50de3110-4765-4b1a-a201-e464bc0cde7a}, !- Zone Air Inlet Port List
  {3cf5d7f6-a329-44e4-aa9e-93936416bd0a}, !- Zone Air Exhaust Port List
  {b1c64017-ed47-48e2-8286-cc493b3d7e0c}, !- Zone Air Node Name
  ,                                       !- Zone Return Air Node Name
  ,                                       !- Primary Daylighting Control Name
  ,                                       !- Fraction of Zone Controlled by Primary Daylighting Control
  ,                                       !- Secondary Daylighting Control Name
  ,                                       !- Fraction of Zone Controlled by Secondary Daylighting Control
  ,                                       !- Illuminance Map Name
  {7855eff9-7ad8-4a58-8e8d-9bcc38784c88}, !- Group Rendering Name
  {47fa3eb8-7111-4714-98bb-c6359a385719}, !- Thermostat Name
  No;                                     !- Use Ideal Air Loads

OS:Node,
  {73d276da-953b-4d3a-b71e-13062ddaf647}, !- Handle
  {cf7f9f6a-0d0c-4703-9dbb-4cde8c5b11a6}, !- Name
  {b1c64017-ed47-48e2-8286-cc493b3d7e0c}, !- Inlet Port
  ;                                       !- Outlet Port

OS:Connection,
  {b1c64017-ed47-48e2-8286-cc493b3d7e0c}, !- Handle
  {5c96e852-680c-4a1a-b39c-22a19d5112cf}, !- Name
  {d8a0f24d-22de-4b36-80b1-ce070fc70d51}, !- Source Object
  11,                                     !- Outlet Port
  {73d276da-953b-4d3a-b71e-13062ddaf647}, !- Target Object
  2;                                      !- Inlet Port

OS:PortList,
  {50de3110-4765-4b1a-a201-e464bc0cde7a}, !- Handle
  {9b0585ef-a18e-4be3-b9c1-e6ce9caaae46}, !- Name
  {d8a0f24d-22de-4b36-80b1-ce070fc70d51}; !- HVAC Component

OS:PortList,
  {3cf5d7f6-a329-44e4-aa9e-93936416bd0a}, !- Handle
  {74359070-aee7-4002-ad86-434fdaaa3643}, !- Name
  {d8a0f24d-22de-4b36-80b1-ce070fc70d51}; !- HVAC Component

OS:Sizing:Zone,
  {f6a766fb-9e9c-4041-82d8-1168dcffd26a}, !- Handle
  {d8a0f24d-22de-4b36-80b1-ce070fc70d51}, !- Zone or ZoneList Name
  SupplyAirTemperature,                   !- Zone Cooling Design Supply Air Temperature Input Method
  14.4444444444444,                       !- Zone Cooling Design Supply Air Temperature {C}
  11.11,                                  !- Zone Cooling Design Supply Air Temperature Difference {deltaC}
  SupplyAirTemperature,                   !- Zone Heating Design Supply Air Temperature Input Method