!-Generator IDFEditor 1.47
!-Option SortedOrder ViewInIPunits

!-NOTE: All comments with '!-' are ignored by the IDFEditor and are generated automatically.
!-      Use '!' comments if they need to be retained when using the IDFEditor.


!-   ===========  ALL OBJECTS IN CLASS: VERSION ===========

Version,
    8.4;                     !- Version Identifier


!-   ===========  ALL OBJECTS IN CLASS: SIMULATIONCONTROL ===========

SimulationControl,
    Yes,                     !- Do Zone Sizing Calculation
    Yes,                     !- Do System Sizing Calculation
    No,                      !- Do Plant Sizing Calculation
    No,                      !- Run Simulation for Sizing Periods
    Yes;                     !- Run Simulation for Weather File Run Periods


!-   ===========  ALL OBJECTS IN CLASS: BUILDING ===========

Building,
    FRP_RTU,                 !- Name
    0,                       !- North Axis {deg}
    Suburbs,                 !- Terrain
    0.04,                    !- Loads Convergence Tolerance Value
    0.4,                     !- Temperature Convergence Tolerance Value {deltaC}
    FullInteriorAndExterior, !- Solar Distribution
    25,                      !- Maximum Number of Warmup Days
    6;                       !- Minimum Number of Warmup Days


!-   ===========  ALL OBJECTS IN CLASS: SHADOWCALCULATION ===========

ShadowCalculation,
    AverageOverDaysInFrequency,  !- Calculation Method
    20,                      !- Calculation Frequency
    15000;                   !- Maximum Figures in Shadow Overlap Calculations


!-   ===========  ALL OBJECTS IN CLASS: SURFACECONVECTIONALGORITHM:INSIDE ===========

SurfaceConvectionAlgorithm:Inside,
    CeilingDiffuser;         !- Algorithm


!-   ===========  ALL OBJECTS IN CLASS: SURFACECONVECTIONALGORITHM:OUTSIDE ===========

SurfaceConvectionAlgorithm:Outside,
    DOE-2;                   !- Algorithm


!-   ===========  ALL OBJECTS IN CLASS: HEATBALANCEALGORITHM ===========

HeatBalanceAlgorithm,
    ConductionTransferFunction,  !- Algorithm
    200,                     !- Surface Temperature Upper Limit {C}
    0.1,                     !- Minimum Surface Convection Heat Transfer Coefficient Value {W/m2-K}
    1000;                    !- Maximum Surface Convection Heat Transfer Coefficient Value {W/m2-K}


!-   ===========  ALL OBJECTS IN CLASS: ZONEAIRHEATBALANCEALGORITHM ===========

ZoneAirHeatBalanceAlgorithm,
    ThirdOrderBackwardDifference;  !- Algorithm


!-   ===========  ALL OBJECTS IN CLASS: ZONECAPACITANCEMULTIPLIER:RESEARCHSPECIAL ===========

ZoneCapacitanceMultiplier:ResearchSpecial,
    1,                       !- Temperature Capacity Multiplier
    1,                       !- Humidity Capacity Multiplier
    1,                       !- Carbon Dioxide Capacity Multiplier
    1;                       !- Generic Contaminant Capacity Multiplier


!-   ===========  ALL OBJECTS IN CLASS: TIMESTEP ===========

Timestep,
    6;                       !- Number of Timesteps per Hour


!-   ===========  ALL OBJECTS IN CLASS: CONVERGENCELIMITS ===========

ConvergenceLimits,
    5,                       !- Minimum System Timestep {minutes}
    25,                      !- Maximum HVAC Iterations
    2,                       !- Minimum Plant Iterations
    8;                       !- Maximum Plant Iterations


!-   ===========  ALL OBJECTS IN CLASS: PROGRAMCONTROL ===========

ProgramControl,
    4;                       !- Number of Threads Allowed


!-   ===========  ALL OBJECTS IN CLASS: SITE:LOCATION ===========

Site:Location,
    Oak Ridge_TN_USA Design_Conditions,  !- Name
    35.96,                   !- Latitude {deg}
    -84.29,                  !- Longitude {deg}
    -5.0,                    !- Time Zone {hr}
    334.00;                  !- Elevation {m}


!-   ===========  ALL OBJECTS IN CLASS: SIZINGPERIOD:DESIGNDAY ===========

SizingPeriod:DesignDay,
    Oak Ridge Ann Htg 99.6% Condns DB,  !- Name
    1,                       !- Month
    21,                      !- Day of Month
    WinterDesignDay,         !- Day Type
    -8.6,                    !- Maximum Dry-Bulb Temperature {C}
    0.0,                     !- Daily Dry-Bulb Temperature Range {deltaC}
    DefaultMultipliers,      !- Dry-Bulb Temperature Range Modifier Type
    ,                        !- Dry-Bulb Temperature Range Modifier Day Schedule Name
    Wetbulb,                 !- Humidity Condition Type
    -8.6,                    !- Wetbulb or DewPoint at Maximum Dry-Bulb {C}
    ,                        !- Humidity Condition Day Schedule Name
    ,                        !- Humidity Ratio at Maximum Dry-Bulb {kgWater/kgDryAir}
    ,                        !- Enthalpy at Maximum Dry-Bulb {J/kg}
    ,                        !- Daily Wet-Bulb Temperature Range {deltaC}
    97376.,                  !- Barometric Pressure {Pa}
    2.5,                     !- Wind Speed {m/s}
    50,                      !- Wind Direction {deg}
    No,                      !- Rain Indicator
    No,                      !- Snow Indicator
    No,                      !- Daylight Saving Time Indicator
    ASHRAEClearSky,          !- Solar Model Indicator
    ,                        !- Beam Solar Day Schedule Name
    ,                        !- Diffuse Solar Day Schedule Name
    ,                        !- ASHRAE Clear Sky Optical Depth for Beam Irradiance (taub) {dimensionless}
    ,                        !- ASHRAE Clear Sky Optical Depth for Diffuse Irradiance (taud) {dimensionless}
    0.00;                    !- Sky Clearness

SizingPeriod:DesignDay,
    Oak Ridge Ann Clg 2% Condns DB=>MWB,  !- Name
    7,                       !- Month
    21,                      !- Day of Month
    SummerDesignDay,         !- Day Type
    31.4,                    !- Maximum Dry-Bulb Temperature {C}
    10.3,                    !- Daily Dry-Bulb Temperature Range {deltaC}
    DefaultMultipliers,      !- Dry-Bulb Temperature Range Modifier Type
    ,                        !- Dry-Bulb Temperature Range Modifier Day Schedule Name
    Wetbulb,                 !- Humidity Condition Type
    22.8,                    !- Wetbulb or DewPoint at Maximum Dry-Bulb {C}
    ,                        !- Humidity Condition Day Schedule Name
    ,                        !- Humidity Ratio at Maximum Dry-Bulb {kgWater/kgDryAir}
    ,                        !- Enthalpy at Maximum Dry-Bulb {J/kg}
    ,                        !- Daily Wet-Bulb Temperature Range {deltaC}
    97376.,                  !- Barometric Pressure {Pa}
    3.2,                     !- Wind Speed {m/s}
    260,                     !- Wind Direction {deg}
    No,                      !- Rain Indicator
    No,                      !- Snow Indicator
    No,                      !- Daylight Saving Time Indicator
    ASHRAETau,               !- Solar Model Indicator
    ,                        !- Beam Solar Day Schedule Name
    ,                        !- Diffuse Solar Day Schedule Name
    0.455,                   !- ASHRAE Clear Sky Optical Depth for Beam Irradiance (taub) {dimensionless}
    2.134;                   !- ASHRAE Clear Sky Optical Depth for Diffuse Irradiance (taud) {dimensionless}


!-   ===========  ALL OBJECTS IN CLASS: RUNPERIOD ===========

RunPeriod,
    Run Period 1,            !- Name
    1,                       !- Begin Month
    1,                       !- Begin Day of Month
    12,                      !- End Month
    31,                      !- End Day of Month
    Sunday,                  !- Day of Week for Start Day
    Yes,                     !- Use Weather File Holidays and Special Days
    Yes,                     !- Use Weather File Daylight Saving Period
    No,                      !- Apply Weekend Holiday Rule
    Yes,                     !- Use Weather File Rain Indicators
    Yes,                     !- Use Weather File Snow Indicators
    1,                       !- Number of Times Runperiod to be Repeated
    ,                        !- Increment Day of Week on repeat
    2017;                    !- Start Year


!-   ===========  ALL OBJECTS IN CLASS: RUNPERIODCONTROL:DAYLIGHTSAVINGTIME ===========

RunPeriodControl:DaylightSavingTime,
    2nd Sunday in March,     !- Start Date
    1st Sunday in November;  !- End Date


!-   ===========  ALL OBJECTS IN CLASS: SITE:GROUNDTEMPERATURE:BUILDINGSURFACE ===========

Site:GroundTemperature:BuildingSurface,
    19.939,                  !- January Ground Temperature {C}
    19.907,                  !- February Ground Temperature {C}
    19.925,                  !- March Ground Temperature {C}
    20.167,                  !- April Ground Temperature {C}
    21.424,                  !- May Ground Temperature {C}
    22.505,                  !- June Ground Temperature {C}
    22.726,                  !- July Ground Temperature {C}
    22.815,                  !- August Ground Temperature {C}
    22.805,                  !- September Ground Temperature {C}
    20.837,                  !- October Ground Temperature {C}
    20.22,                   !- November Ground Temperature {C}
    20.048;                  !- December Ground Temperature {C}


!-   ===========  ALL OBJECTS IN CLASS: SITE:GROUNDREFLECTANCE ===========

Site:GroundReflectance,
    0.29,                    !- January Ground Reflectance {dimensionless}
    0.29,                    !- February Ground Reflectance {dimensionless}
    0.29,                    !- March Ground Reflectance {dimensionless}
    0.29,                    !- April Ground Reflectance {dimensionless}
    0.29,                    !- May Ground Reflectance {dimensionless}
    0.29,                    !- June Ground Reflectance {dimensionless}
    0.29,                    !- July Ground Reflectance {dimensionless}
    0.29,                    !- August Ground Reflectance {dimensionless}
    0.29,                    !- September Ground Reflectance {dimensionless}
    0.29,                    !- October Ground Reflectance {dimensionless}
    0.29,                    !- November Ground Reflectance {dimensionless}
    0.29;                    !- December Ground Reflectance {dimensionless}


!-   ===========  ALL OBJECTS IN CLASS: SITE:WATERMAINSTEMPERATURE ===========

Site:WaterMainsTemperature,
    Correlation,             !- Calculation Method
    ,                        !- Temperature Schedule Name
    14.55,                   !- Annual Average Outdoor Air Temperature {C}
    22;                      !- Maximum Difference In Monthly Average Outdoor Air Temperatures {deltaC}


!-   ===========  ALL OBJECTS IN CLASS: SCHEDULETYPELIMITS ===========

ScheduleTypeLimits,
    Fraction,                !- Name
    0,                       !- Lower Limit Value
    1,                       !- Upper Limit Value
    CONTINUOUS;              !- Numeric Type

ScheduleTypeLimits,
    Control Type,            !- Name
    0,                       !- Lower Limit Value
    4,                       !- Upper Limit Value
    DISCRETE,                !- Numeric Type
    dimensionless;           !- Unit Type

ScheduleTypeLimits,
    On/Off,                  !- Name
    0,                       !- Lower Limit Value
    1,                       !- Upper Limit Value
    DISCRETE,                !- Numeric Type
    availability;            !- Unit Type

ScheduleTypeLimits,
    Humidity,                !- Name
    10,                      !- Lower Limit Value
    90,                      !- Upper Limit Value
    CONTINUOUS;              !- Numeric Type

ScheduleTypeLimits,
    Temperature,             !- Name
    -60,                     !- Lower Limit Value
    200,                     !- Upper Limit Value
    CONTINUOUS,              !- Numeric Type
    temperature;             !- Unit Type

!
! -------------------------------------------------------------
! New objects created from ExpandObjects
! -------------------------------------------------------------
!
ScheduleTypeLimits,
    HVACTemplate Any Number; !- Name


!-   ===========  ALL OBJECTS IN CLASS: SCHEDULE:COMPACT ===========

Schedule:Compact,
    BLDG_EQUIP_SCH,          !- Name
    Fraction,                !- Schedule Type Limits Name
    Through: 12/31,          !- Field 1
    For: AllDays,            !- Field 2
    Until: 24:00,            !- Field 3
    0.0;                     !- Field 4

Schedule:Compact,
    ALWAYS_OFF,              !- Name
    Fraction,                !- Schedule Type Limits Name
    Through: 12/31,          !- Field 1
    For: AllDays,            !- Field 2
    Until: 24:00,            !- Field 3
    0.0;                     !- Field 4

Schedule:Compact,
    BLDG_LIGHT_SCH,          !- Name
    Fraction,                !- Schedule Type Limits Name
    Through: 12/31,          !- Field 1
    For: AllDays,            !- Field 2
    Until: 24:00,            !- Field 3
    0.0;                     !- Field 4

Schedule:Compact,
    ALWAYS_ON,               !- Name
    Fraction,                !- Schedule Type Limits Name
    Through: 12/31,          !- Field 1
    For: AllDays,            !- Field 2
    Until: 24:00,            !- Field 3
    1.0;                     !- Field 4

Schedule:Compact,
    Occupant Latent Schedule,!- Name
    Fraction,                !- Schedule Type Limits Name
    Through: 12/31,          !- Field 1
    For: AllDays,            !- Field 2
    Until: 24:00,            !- Field 3
    0;                       !- Field 4

Schedule:Compact,
    Deck_Temperature,        !- Name
    Temperature,             !- Schedule Type Limits Name
    Through:12/31,           !- Field 1
    For:AllDays,             !- Field 2
    Until: 24:00,            !- Field 3
    13.89;                   !- Field 4

Schedule:Compact,
    Thermostat Schedule,     !- Name
    Control Type,            !- Schedule Type Limits Name
    Through: 12/31,          !- Field 1
    For: AllDays,            !- Field 2
    Until: 24:00,            !- Field 3
    4;                       !- Field 4

Schedule:Compact,
    Always_On 4,             !- Name
    Control Type,            !- Schedule Type Limits Name
    Through: 12/31,          !- Field 1
    For: AllDays,            !- Field 2
    Until: 24:00,            !- Field 3
    4;                       !- Field 4

Schedule:Compact,
    Always_On 3,             !- Name
    Control Type,            !- Schedule Type Limits Name
    Through: 12/31,          !- Field 1
    For: AllDays,            !- Field 2
    Until: 24:00,            !- Field 3
    3;                       !- Field 4

Schedule:Compact,
    Always_On 2,             !- Name
    Control Type,            !- Schedule Type Limits Name
    Through: 12/31,          !- Field 1
    For: AllDays,            !- Field 2
    Until: 24:00,            !- Field 3
    2;                       !- Field 4

Schedule:Compact,
    Always_On 1,             !- Name
    Control Type,            !- Schedule Type Limits Name
    Through: 12/31,          !- Field 1
    For: AllDays,            !- Field 2
    Until: 24:00,            !- Field 3
    1;                       !- Field 4

Schedule:Compact,
    AvailabilityM_1,         !- Name
    On/Off,                  !- Schedule Type Limits Name
    Through: 12/31,          !- Field 1
    For: AllDays,            !- Field 2
    Until: 24:00,            !- Field 3
    1.0;                     !- Field 4

Schedule:Compact,
    AvailabilityM_2,         !- Name
    On/Off,                  !- Schedule Type Limits Name
    Through: 12/31,          !- Field 1
    For: AllDays,            !- Field 2
    Until: 24:00,            !- Field 3
    1.0;                     !- Field 4

Schedule:Compact,
    HVACTemplate-Always 1,   !- Name
    HVACTemplate Any Number, !- Schedule Type Limits Name
    Through: 12/31,          !- Field 1
    For: AllDays,            !- Field 2
    Until: 24:00,            !- Field 3
    1;                       !- Field 4

Schedule:Compact,
    HVACTemplate-Always 4,   !- Name
    HVACTemplate Any Number, !- Schedule Type Limits Name
    Through: 12/31,          !- Field 1
    For: AllDays,            !- Field 2
    Until: 24:00,            !- Field 3
    4;                       !- Field 4

Schedule:Compact,
    HVACTemplate-Always Cooling 13.89.,  !- Name
    HVACTemplate Any Number, !- Schedule Type Limits Name
    Through: 12/31,          !- Field 1
    For: AllDays,            !- Field 2
    Until: 24:00,            !- Field 3
    13.89;                   !- Field 4

Schedule:Compact,
    HVACTemplate-Always Heating 20,  !- Name
    HVACTemplate Any Number, !- Schedule Type Limits Name
    Through: 12/31,          !- Field 1
    For: AllDays,            !- Field 2
    Until: 24:00,            !- Field 3
    20;                      !- Field 4

Schedule:Compact,
    BLDG_LIGHT_DownSt_SCH,   !- Name
    Fraction,                !- Schedule Type Limits Name
    Through: 12/31,          !- Field 1
    For: AllDays,            !- Field 2
    Until: 24:00,            !- Field 3
    0.0;                     !- Field 4

Schedule:Compact,
    BLDG_LIGHT_Upst_SCH,     !- Name
    Fraction,                !- Schedule Type Limits Name
    Through: 12/31,          !- Field 1
    For: AllDays,            !- Field 2
    Until: 24:00,            !- Field 3
    0.0;                     !- Field 4

Schedule:Compact,
    New_BLDG_EQUIP_SCH 203,  !- Name
    Fraction,                !- Schedule Type Limits Name
    Through: 12/31,          !- Field 1
    For: AllDays,            !- Field 2
    Until: 24:00,            !- Field 3
    0.0;                     !- Field 4

Schedule:Compact,
    HVACTemplate-Always 18,  !- Name
    HVACTemplate Any Number, !- Schedule Type Limits Name
    Through: 12/31,          !- Field 1
    For: AllDays,            !- Field 2
    Until: 24:00,            !- Field 3
    18;                      !- Field 4

Schedule:Compact,
    INFIL_SCH,               !- Name
    Fraction,                !- Schedule Type Limits Name
    Through: 12/31,          !- Field 1
    For: AllDays,            !- Field 2
    Until: 06:00,            !- Field 3
    1,                       !- Field 4
    Until: 18:00,            !- Field 5
    0.25,                    !- Field 6
    Until: 24:00,            !- Field 7
    1;                       !- Field 8

Schedule:Compact,
    DOAS-Always 1,           !- Name
    Fraction,                !- Schedule Type Limits Name
    Through: 12/31,          !- Field 1
    For: WeekDays CustomDay1 CustomDay2,  !- Field 2
    Until: 24:00,            !- Field 3
    0,                       !- Field 4
    For: Weekends Holiday,   !- Field 5
    Until: 24:00,            !- Field 6
    0,                       !- Field 7
    For: SummerDesignDay,    !- Field 8
    Until: 24:00,            !- Field 9
    0.0,                     !- Field 10
    For: WinterDesignDay,    !- Field 11
    Until: 24:00,            !- Field 12
    0.0;                     !- Field 13

Schedule:Compact,
    New_BLDG_EQUIP_SCH_Up,   !- Name
    Fraction,                !- Schedule Type Limits Name
    Through: 12/31,          !- Field 1
    For: AllDays,            !- Field 2
    Until: 24:00,            !- Field 3
    0.0;                     !- Field 4

Schedule:Compact,
    New_BLDG_EQUIP_SCH_Down, !- Name
    Fraction,                !- Schedule Type Limits Name
    Through: 12/31,          !- Field 1
    For: AllDays,            !- Field 2
    Until: 24:00,            !- Field 3
    0.0;                     !- Field 4

Schedule:Compact,
    Heating Schedule,        !- Name
    Temperature,             !- Schedule Type Limits Name
    Through: 12/31,          !- Field 1
    For: Weekdays,           !- Field 2
    Until: 06:00,            !- Field 3
    15,                      !- Field 4
    Until: 18:00,            !- Field 5
    21.11,                   !- Field 6
    Until 24:00,             !- Field 7
    15,                      !- Field 8
    For: SummerDesignDay,    !- Field 9
    Until: 24:00,            !- Field 10
    21.11,                   !- Field 11
    For: Saturday,           !- Field 12
    Until: 06:00,            !- Field 13
    15,                      !- Field 14
    Until: 18:00,            !- Field 15
    21.11,                   !- Field 16
    Until 24:00,             !- Field 17
    15,                      !- Field 18
    For: WinterDesignDay,    !- Field 19
    Until: 24:00,            !- Field 20
    21.11,                   !- Field 21
    For: Sunday Holidays AllOtherDays,  !- Field 22
    Until: 06:00,            !- Field 23
    15,                      !- Field 24
    Until: 18:00,            !- Field 25
    21.11,                   !- Field 26
    Until 24:00,             !- Field 27
    15;                      !- Field 28

Schedule:Compact,
    Cooling Schedule,        !- Name
    Temperature,             !- Schedule Type Limits Name
    Through: 12/31,          !- Field 1
    For: Weekdays,           !- Field 2
    Until: 06:00,            !- Field 3
    31.7,                    !- Field 4
    Until: 18:00,            !- Field 5
    23.9,                    !- Field 6
    Until 24:00,             !- Field 7
    31.7,                    !- Field 8
    For: SummerDesignDay,    !- Field 9
    Until: 24:00,            !- Field 10
    23.9,                    !- Field 11
    For: Saturday,           !- Field 12
    Until: 06:00,            !- Field 13
    31.7,                    !- Field 14
    Until: 18:00,            !- Field 15
    23.9,                    !- Field 16
    Until 24:00,             !- Field 17
    31.7,                    !- Field 18
    For: WinterDesignDay,    !- Field 19
    Until: 24:00,            !- Field 20
    23.9,                    !- Field 21
    For: Sunday Holidays AllOtherDays,  !- Field 22
    Until: 06:00,            !- Field 23
    31.7,                    !- Field 24
    Until: 18:00,            !- Field 25
    23.9,                    !- Field 26
    Until 24:00,             !- Field 27
    31.7;                    !- Field 28

Schedule:Compact,
    FanAvailSched,           !- Name
    Fraction,                !- Schedule Type Limits Name
    Through: 12/31,          !- Field 1
    For: WeekDays CustomDay1 CustomDay2,  !- Field 2
    Until: 6:00,             !- Field 3
    0,                       !- Field 4
    Until: 18:00,            !- Field 5
    1.0,                     !- Field 6
    Until: 24:00,            !- Field 7
    0,                       !- Field 8
    For: Weekends Holiday,   !- Field 9
    Until: 6:00,             !- Field 10
    0,                       !- Field 11
    Until: 18:00,            !- Field 12
    1.0,                     !- Field 13
    Until: 24:00,            !- Field 14
    0,                       !- Field 15
    For: SummerDesignDay,    !- Field 16
    Until: 24:00,            !- Field 17
    1.0,                     !- Field 18
    For: WinterDesignDay,    !- Field 19
    Until: 24:00,            !- Field 20
    1.0;                     !- Field 21


!-   ===========  ALL OBJECTS IN CLASS: MATERIAL ===========

Material,
    Ground_Upper_Concrete,   !- Name
    Rough,                   !- Roughness
    0.4064,                  !- Thickness {m}
    0.10924592,              !- Conductivity {W/m-K}
    2242.58345614147,        !- Density {kg/m3}
    836.800000000001,        !- Specific Heat {J/kg-K}
    0.9,                     !- Thermal Absorptance
    0.7,                     !- Solar Absorptance
    0.7;                     !- Visible Absorptance

Material,
    Std AC02,                !- Name
    MediumSmooth,            !- Roughness
    0.0127,                  !- Thickness {m}
    0.057,                   !- Conductivity {W/m-K}
    288,                     !- Density {kg/m3}
    1339,                    !- Specific Heat {J/kg-K}
    0.9,                     !- Thermal Absorptance
    0.7,                     !- Solar Absorptance
    0.2;                     !- Visible Absorptance

Material,
    ExtWall_Gypsum,          !- Name
    Smooth,                  !- Roughness
    0.015875,                !- Thickness {m}
    0.16,                    !- Conductivity {W/m-K}
    784.9,                   !- Density {kg/m3}
    830,                     !- Specific Heat {J/kg-K}
    0.9,                     !- Thermal Absorptance
    0.92,                    !- Solar Absorptance
    0.92;                    !- Visible Absorptance

Material,
    Roof Membrane,           !- Name
    VeryRough,               !- Roughness
    0.0095,                  !- Thickness {m}
    0.16,                    !- Conductivity {W/m-K}
    1121.29,                 !- Density {kg/m3}
    1460,                    !- Specific Heat {J/kg-K}
    0.9,                     !- Thermal Absorptance
    0.7,                     !- Solar Absorptance
    0.7;                     !- Visible Absorptance

Material,
    Std PW05,                !- Name
    MediumSmooth,            !- Roughness
    0.019099999,             !- Thickness {m}
    0.115,                   !- Conductivity {W/m-K}
    545,                     !- Density {kg/m3}
    1213,                    !- Specific Heat {J/kg-K}
    0.9,                     !- Thermal Absorptance
    0.78,                    !- Solar Absorptance
    0.78;                    !- Visible Absorptance

Material,
    GP01 1/2 GYPSUM,         !- Name
    Smooth,                  !- Roughness
    0.0127,                  !- Thickness {m}
    0.16,                    !- Conductivity {W/m-K}
    800,                     !- Density {kg/m3}
    1090,                    !- Specific Heat {J/kg-K}
    0.9,                     !- Thermal Absorptance
    0.7,                     !- Solar Absorptance
    0.5;                     !- Visible Absorptance

Material,
    Std 1.5  MW CONCRETE,    !- Name
    Rough,                   !- Roughness
    0.038,                   !- Thickness {m}
    0.858,                   !- Conductivity {W/m-K}
    1968,                    !- Density {kg/m3}
    836.8,                   !- Specific Heat {J/kg-K}
    0.9,                     !- Thermal Absorptance
    0.7,                     !- Solar Absorptance
    0.7;                     !- Visible Absorptance

Material,
    ExtWall_FaceBrick,       !- Name
    MediumRough,             !- Roughness
    0.09207499,              !- Thickness {m}
    1.31095104,              !- Conductivity {W/m-K}
    2082.39892355994,        !- Density {kg/m3}
    920.480000000001,        !- Specific Heat {J/kg-K}
    0.9,                     !- Thermal Absorptance
    0.7,                     !- Solar Absorptance
    0.7;                     !- Visible Absorptance

Material,
    Metal Decking,           !- Name
    MediumSmooth,            !- Roughness
    0.0015,                  !- Thickness {m}
    45.006,                  !- Conductivity {W/m-K}
    7680,                    !- Density {kg/m3}
    418.4,                   !- Specific Heat {J/kg-K}
    0.9,                     !- Thermal Absorptance
    0.7,                     !- Solar Absorptance
    0.3;                     !- Visible Absorptance

Material,
    ExtWall_ConcreteBlock,   !- Name
    Rough,                   !- Roughness
    0.2032,                  !- Thickness {m}
    1.311,                   !- Conductivity {W/m-K}
    1121.291728,             !- Density {kg/m3}
    836.8,                   !- Specific Heat {J/kg-K}
    0.9,                     !- Thermal Absorptance
    0.7,                     !- Solar Absorptance
    0.7;                     !- Visible Absorptance

Material,
    GeoFoam,                 !- Name
    MediumRough,             !- Roughness
    0.3048,                  !- Thickness {m}
    0.033,                   !- Conductivity {W/m-K}
    51.5,                    !- Density {kg/m3}
    836.8,                   !- Specific Heat {J/kg-K}
    0.9,                     !- Thermal Absorptance
    0.7,                     !- Solar Absorptance
    0.7;                     !- Visible Absorptance

Material,
    Ground_Lower_Concrete,   !- Name
    Rough,                   !- Roughness
    0.1524,                  !- Thickness {m}
    0.10924592,              !- Conductivity {W/m-K}
    2242.58345614147,        !- Density {kg/m3}
    836.800000000001,        !- Specific Heat {J/kg-K}
    0.9,                     !- Thermal Absorptance
    0.7,                     !- Solar Absorptance
    0.7;                     !- Visible Absorptance

Material,
    Roof Insulation,         !- Name
    MediumRough,             !- Roughness
    0.0762,                  !- Thickness {m}
    0.024023,                !- Conductivity {W/m-K}
    265,                     !- Density {kg/m3}
    836.8,                   !- Specific Heat {J/kg-K}
    0.9,                     !- Thermal Absorptance
    0.7,                     !- Solar Absorptance
    0.7;                     !- Visible Absorptance

Material,
    ExtWall_R11_Insulation,  !- Name
    MediumRough,             !- Roughness
    0.0889,                  !- Thickness {m}
    0.077868,                !- Conductivity {W/m-K}
    9.61107195489204,        !- Density {kg/m3}
    836.8,                   !- Specific Heat {J/kg-K}
    0.9,                     !- Thermal Absorptance
    0.7,                     !- Solar Absorptance