
Version,
  8.8;                                    !- Version Identifier

LifeCycleCost:Parameters,
  {e27d6770-11b7-40a6-9621-1bac9f1a0ffc}, !- Name
  EndOfYear,                              !- Discounting Convention
  ConstantDollar,                         !- Inflation Approach
  0.03,                                   !- Real Discount Rate
  ,                                       !- Nominal Discount Rate
  ,                                       !- Inflation
  ,                                       !- Base Date Month
  2011,                                   !- Base Date Year
  ,                                       !- Service Date Month
  2011,                                   !- Service Date Year
  25,                                     !- Length of Study Period in Years
  ,                                       !- Tax rate
  None;                                   !- Depreciation Method

LifeCycleCost:UsePriceEscalation,
  U.S. Avg  Commercial-Electricity,       !- LCC Price Escalation Name
  Electricity,                            !- Resource
  2011,                                   !- Escalation Start Year
  January,                                !- Escalation Start Month
  0.9838,                                 !- Year Escalation 1
  0.9730,                                 !- Year Escalation 2
  0.9632,                                 !- Year Escalation 3
  0.9611,                                 !- Year Escalation 4
  0.9571,                                 !- Year Escalation 5
  0.9553,                                 !- Year Escalation 6
  0.9539,                                 !- Year Escalation 7
  0.9521,                                 !- Year Escalation 8
  0.9546,                                 !- Year Escalation 9
  0.9550,                                 !- Year Escalation 10
  0.9553,                                 !- Year Escalation 11
  0.9564,                                 !- Year Escalation 12
  0.9575,                                 !- Year Escalation 13
  0.9596,                                 !- Year Escalation 14
  0.9618,                                 !- Year Escalation 15
  0.9614,                                 !- Year Escalation 16
  0.9618,                                 !- Year Escalation 17
  0.9618,                                 !- Year Escalation 18
  0.9593,                                 !- Year Escalation 19
  0.9589,                                 !- Year Escalation 20
  0.9607,                                 !- Year Escalation 21
  0.9625,                                 !- Year Escalation 22
  0.9650,                                 !- Year Escalation 23
  0.9708,                                 !- Year Escalation 24
  0.9751,                                 !- Year Escalation 25
  0.9762,                                 !- Year Escalation 26
  0.9766,                                 !- Year Escalation 27
  0.9766,                                 !- Year Escalation 28
  0.9769,                                 !- Year Escalation 29
  0.9773;                                 !- Year Escalation 30

LifeCycleCost:UsePriceEscalation,
  U.S. Avg  Commercial-Distillate Oil,    !- LCC Price Escalation Name
  FuelOil#1,                              !- Resource
  2011,                                   !- Escalation Start Year
  January,                                !- Escalation Start Month
  0.9714,                                 !- Year Escalation 1
  0.9730,                                 !- Year Escalation 2
  0.9942,                                 !- Year Escalation 3
  1.0164,                                 !- Year Escalation 4
  1.0541,                                 !- Year Escalation 5
  1.0928,                                 !- Year Escalation 6
  1.1267,                                 !- Year Escalation 7
  1.1580,                                 !- Year Escalation 8
  1.1792,                                 !- Year Escalation 9
  1.1967,                                 !- Year Escalation 10
  1.2200,                                 !- Year Escalation 11
  1.2333,                                 !- Year Escalation 12
  1.2566,                                 !- Year Escalation 13
  1.2709,                                 !- Year Escalation 14
  1.2826,                                 !- Year Escalation 15
  1.2985,                                 !- Year Escalation 16
  1.3102,                                 !- Year Escalation 17
  1.3250,                                 !- Year Escalation 18
  1.3261,                                 !- Year Escalation 19
  1.3282,                                 !- Year Escalation 20
  1.3324,                                 !- Year Escalation 21
  1.3356,                                 !- Year Escalation 22
  1.3431,                                 !- Year Escalation 23
  1.3510,                                 !- Year Escalation 24
  1.3568,                                 !- Year Escalation 25
  1.3606,                                 !- Year Escalation 26
  1.3637,                                 !- Year Escalation 27
  1.3674,                                 !- Year Escalation 28
  1.3706,                                 !- Year Escalation 29
  1.3743;                                 !- Year Escalation 30

LifeCycleCost:UsePriceEscalation,
  U.S. Avg  Commercial-Residual Oil,      !- LCC Price Escalation Name
  FuelOil#2,                              !- Resource
  2011,                                   !- Escalation Start Year
  January,                                !- Escalation Start Month
  0.8469,                                 !- Year Escalation 1
  0.8257,                                 !- Year Escalation 2
  0.8681,                                 !- Year Escalation 3
  0.8988,                                 !- Year Escalation 4
  0.9289,                                 !- Year Escalation 5
  0.9604,                                 !- Year Escalation 6
  0.9897,                                 !- Year Escalation 7
  1.0075,                                 !- Year Escalation 8
  1.0314,                                 !- Year Escalation 9
  1.0554,                                 !- Year Escalation 10
  1.0861,                                 !- Year Escalation 11
  1.1278,                                 !- Year Escalation 12
  1.1497,                                 !- Year Escalation 13
  1.1620,                                 !- Year Escalation 14
  1.1743,                                 !- Year Escalation 15
  1.1852,                                 !- Year Escalation 16
  1.1948,                                 !- Year Escalation 17
  1.2037,                                 !- Year Escalation 18
  1.2071,                                 !- Year Escalation 19
  1.2119,                                 !- Year Escalation 20
  1.2139,                                 !- Year Escalation 21
  1.2194,                                 !- Year Escalation 22
  1.2276,                                 !- Year Escalation 23
  1.2365,                                 !- Year Escalation 24
  1.2420,                                 !- Year Escalation 25
  1.2461,                                 !- Year Escalation 26
  1.2509,                                 !- Year Escalation 27
  1.2550,                                 !- Year Escalation 28
  1.2591,                                 !- Year Escalation 29
  1.2638;                                 !- Year Escalation 30

LifeCycleCost:UsePriceEscalation,
  U.S. Avg  Commercial-Natural gas,       !- LCC Price Escalation Name
  NaturalGas,                             !- Resource
  2011,                                   !- Escalation Start Year
  January,                                !- Escalation Start Month
  0.9823,                                 !- Year Escalation 1
  0.9557,                                 !- Year Escalation 2
  0.9279,                                 !- Year Escalation 3
  0.9257,                                 !- Year Escalation 4
  0.9346,                                 !- Year Escalation 5
  0.9412,                                 !- Year Escalation 6
  0.9512,                                 !- Year Escalation 7
  0.9645,                                 !- Year Escalation 8
  0.9856,                                 !- Year Escalation 9
  1.0067,                                 !- Year Escalation 10
  1.0222,                                 !- Year Escalation 11
  1.0410,                                 !- Year Escalation 12
  1.0610,                                 !- Year Escalation 13
  1.0787,                                 !- Year Escalation 14
  1.0942,                                 !- Year Escalation 15
  1.1098,                                 !- Year Escalation 16
  1.1220,                                 !- Year Escalation 17
  1.1308,                                 !- Year Escalation 18
  1.1386,                                 !- Year Escalation 19
  1.1486,                                 !- Year Escalation 20
  1.1619,                                 !- Year Escalation 21
  1.1763,                                 !- Year Escalation 22
  1.1918,                                 !- Year Escalation 23
  1.2118,                                 !- Year Escalation 24
  1.2284,                                 !- Year Escalation 25
  1.2439,                                 !- Year Escalation 26
  1.2605,                                 !- Year Escalation 27
  1.2772,                                 !- Year Escalation 28
  1.2938,                                 !- Year Escalation 29
  1.3115;                                 !- Year Escalation 30

LifeCycleCost:UsePriceEscalation,
  U.S. Avg  Commercial-Coal,              !- LCC Price Escalation Name
  Coal,                                   !- Resource
  2011,                                   !- Escalation Start Year
  January,                                !- Escalation Start Month
  0.9970,                                 !- Year Escalation 1
  1.0089,                                 !- Year Escalation 2
  1.0089,                                 !- Year Escalation 3
  0.9941,                                 !- Year Escalation 4
  0.9941,                                 !- Year Escalation 5
  1.0000,                                 !- Year Escalation 6
  1.0030,                                 !- Year Escalation 7
  1.0059,                                 !- Year Escalation 8
  1.0089,                                 !- Year Escalation 9
  1.0119,                                 !- Year Escalation 10
  1.0148,                                 !- Year Escalation 11
  1.0178,                                 !- Year Escalation 12
  1.0208,                                 !- Year Escalation 13
  1.0267,                                 !- Year Escalation 14
  1.0297,                                 !- Year Escalation 15
  1.0356,                                 !- Year Escalation 16
  1.0415,                                 !- Year Escalation 17
  1.0534,                                 !- Year Escalation 18
  1.0564,                                 !- Year Escalation 19
  1.0593,                                 !- Year Escalation 20
  1.0653,                                 !- Year Escalation 21
  1.0712,                                 !- Year Escalation 22
  1.0742,                                 !- Year Escalation 23
  1.0801,                                 !- Year Escalation 24
  1.0831,                                 !- Year Escalation 25
  1.0831,                                 !- Year Escalation 26
  1.0861,                                 !- Year Escalation 27
  1.0890,                                 !- Year Escalation 28
  1.0920,                                 !- Year Escalation 29
  1.0950;                                 !- Year Escalation 30

Building,
  FRP_RTU,                                !- Name
  0,                                      !- North Axis {deg}
  Suburbs,                                !- Terrain
  0.04,                                   !- Loads Convergence Tolerance Value
  0.4,                                    !- Temperature Convergence Tolerance Value {deltaC}
  FullInteriorAndExterior,                !- Solar Distribution
  25,                                     !- Maximum Number of Warmup Days
  6;                                      !- Minimum Number of Warmup Days

Zone,
  1F Plenum,                              !- Name
  -0,                                     !- Direction of Relative North {deg}
  0,                                      !- X Origin {m}
  0,                                      !- Y Origin {m}
  0,                                      !- Z Origin {m}
  ,                                       !- Type
  ,                                       !- Multiplier
  ,                                       !- Ceiling Height {m}
  ,                                       !- Volume {m3}
  ,                                       !- Floor Area {m2}
  ,                                       !- Zone Inside Convection Algorithm
  AdaptiveConvectionAlgorithm,            !- Zone Outside Convection Algorithm
  No;                                     !- Part of Total Floor Area

BuildingSurface:Detailed,
  123 Reversed,                           !- Name
  Wall,                                   !- Surface Type
  INT_WALL,                               !- Construction Name
  1F Plenum,                              !- Zone Name
  Surface,                                !- Outside Boundary Condition
  Surface 123,                            !- Outside Boundary Condition Object
  NoSun,                                  !- Sun Exposure
  NoWind,                                 !- Wind Exposure
  0,                                      !- View Factor to Ground
  ,                                       !- Number of Vertices
  10.15365, 5.4864, 4.064,                !- X,Y,Z Vertex 1 {m}
  10.15365, 5.4864, 2.7432,               !- X,Y,Z Vertex 2 {m}
  10.15365, 12.8016, 2.7432,              !- X,Y,Z Vertex 3 {m}
  10.15365, 12.8016, 4.064;               !- X,Y,Z Vertex 4 {m}

BuildingSurface:Detailed,
  B2C8DA,                                 !- Name
  Wall,                                   !- Surface Type
  2FRP_Ext_Wall,                          !- Construction Name
  1F Plenum,                              !- Zone Name
  Outdoors,                               !- Outside Boundary Condition
  ,                                       !- Outside Boundary Condition Object
  SunExposed,                             !- Sun Exposure
  WindExposed,                            !- Wind Exposure
  ,                                       !- View Factor to Ground
  ,                                       !- Number of Vertices
  12.79525, 0, 4.064,                     !- X,Y,Z Vertex 1 {m}
  12.79525, 0, 2.7432,                    !- X,Y,Z Vertex 2 {m}
  12.79525, 5.4864, 2.7432,               !- X,Y,Z Vertex 3 {m}
  12.79525, 5.4864, 4.064;                !- X,Y,Z Vertex 4 {m}

BuildingSurface:Detailed,
  E41AE3,                                 !- Name
  Wall,                                   !- Surface Type
  INT_WALL,                               !- Construction Name
  1F Plenum,                              !- Zone Name
  Surface,                                !- Outside Boundary Condition
  Surface 12 Reversed,                    !- Outside Boundary Condition Object
  NoSun,                                  !- Sun Exposure
  NoWind,                                 !- Wind Exposure
  0,                                      !- View Factor to Ground
  ,                                       !- Number of Vertices
  12.79525, 5.4864, 4.064,                !- X,Y,Z Vertex 1 {m}
  12.79525, 5.4864, 2.7432,               !- X,Y,Z Vertex 2 {m}
  10.15365, 5.4864, 2.7432,               !- X,Y,Z Vertex 3 {m}
  10.15365, 5.4864, 4.064;                !- X,Y,Z Vertex 4 {m}

BuildingSurface:Detailed,
  NE_1F_Plenum_Wall,                      !- Name
  Wall,                                   !- Surface Type
  2FRP_Ext_Wall,                          !- Construction Name
  1F Plenum,                              !- Zone Name
  Outdoors,                               !- Outside Boundary Condition
  ,                                       !- Outside Boundary Condition Object
  SunExposed,                             !- Sun Exposure
  WindExposed,                            !- Wind Exposure
  ,                                       !- View Factor to Ground
  ,                                       !- Number of Vertices
  10.15365, 12.8016, 4.064,               !- X,Y,Z Vertex 1 {m}
  10.15365, 12.8016, 2.7432,              !- X,Y,Z Vertex 2 {m}
  7.30885, 12.8016, 2.7432,               !- X,Y,Z Vertex 3 {m}
  7.30885, 12.8016, 4.064;                !- X,Y,Z Vertex 4 {m}

BuildingSurface:Detailed,
  NW_1F_Plenum_Wall,                      !- Name
  Wall,                                   !- Surface Type
  Hybrid Spray Foam In.,                  !- Construction Name
  1F Plenum,                              !- Zone Name
  Outdoors,                               !- Outside Boundary Condition
  ,                                       !- Outside Boundary Condition Object
  SunExposed,                             !- Sun Exposure
  WindExposed,                            !- Wind Exposure
  ,                                       !- View Factor to Ground
  ,                                       !- Number of Vertices
  7.30885, 12.8016, 4.064,                !- X,Y,Z Vertex 1 {m}
  7.30885, 12.8016, 2.7432,               !- X,Y,Z Vertex 2 {m}
  -0.00635, 12.8016, 2.7432,              !- X,Y,Z Vertex 3 {m}
  -0.00635, 12.8016, 4.064;               !- X,Y,Z Vertex 4 {m}

BuildingSurface:Detailed,
  SE_1F_Plenum_Wall,                      !- Name
  Wall,                                   !- Surface Type
  2FRP_Ext_Wall,                          !- Construction Name
  1F Plenum,                              !- Zone Name
  Outdoors,                               !- Outside Boundary Condition
  ,                                       !- Outside Boundary Condition Object
  SunExposed,                             !- Sun Exposure
  WindExposed,                            !- Wind Exposure
  ,                                       !- View Factor to Ground
  ,                                       !- Number of Vertices
  5.48005, 0, 4.064,                      !- X,Y,Z Vertex 1 {m}
  5.48005, 0, 2.7432,                     !- X,Y,Z Vertex 2 {m}
  12.79525, 0, 2.7432,                    !- X,Y,Z Vertex 3 {m}
  12.79525, 0, 4.064;                     !- X,Y,Z Vertex 4 {m}

BuildingSurface:Detailed,
  Surface 108,                            !- Name
  Ceiling,                                !- Surface Type
  2F_Floor,                               !- Construction Name
  1F Plenum,                              !- Zone Name
  Surface,                                !- Outside Boundary Condition
  Surface 108 Reversed,                   !- Outside Boundary Condition Object
  NoSun,                                  !- Sun Exposure
  NoWind,                                 !- Wind Exposure
  0,                                      !- View Factor to Ground
  ,                                       !- Number of Vertices
  12.79525, 0, 4.064,                     !- X,Y,Z Vertex 1 {m}
  12.79525, 5.4864, 4.064,                !- X,Y,Z Vertex 2 {m}
  8.78205, 5.4864, 4.064,                 !- X,Y,Z Vertex 3 {m}
  8.78205, 4.0132, 4.064,                 !- X,Y,Z Vertex 4 {m}
  5.48005, 4.0132, 4.064,                 !- X,Y,Z Vertex 5 {m}
  5.48005, 0, 4.064;                      !- X,Y,Z Vertex 6 {m}

BuildingSurface:Detailed,
  Surface 109,                            !- Name
  Floor,                                  !- Surface Type
  Drop_Ceiling,                           !- Construction Name
  1F Plenum,                              !- Zone Name
  Surface,                                !- Outside Boundary Condition
  Surface 109 Reversed,                   !- Outside Boundary Condition Object
  NoSun,                                  !- Sun Exposure
  NoWind,                                 !- Wind Exposure
  0,                                      !- View Factor to Ground
  ,                                       !- Number of Vertices
  4.00685, 7.3152, 2.7432,                !- X,Y,Z Vertex 1 {m}
  4.00685, 4.0132, 2.7432,                !- X,Y,Z Vertex 2 {m}
  5.48005, 4.0132, 2.7432,                !- X,Y,Z Vertex 3 {m}
  5.48005, 0, 2.7432,                     !- X,Y,Z Vertex 4 {m}
  -0.00635, 0, 2.7432,                    !- X,Y,Z Vertex 5 {m}
  -0.00635, 7.3152, 2.7432;               !- X,Y,Z Vertex 6 {m}

BuildingSurface:Detailed,
  Surface 111,                            !- Name
  Ceiling,                                !- Surface Type
  2F_Floor,                               !- Construction Name
  1F Plenum,                              !- Zone Name
  Surface,                                !- Outside Boundary Condition
  Surface 111 Reversed,                   !- Outside Boundary Condition Object
  NoSun,                                  !- Sun Exposure
  NoWind,                                 !- Wind Exposure
  0,                                      !- View Factor to Ground
  ,                                       !- Number of Vertices
  4.00685, 7.3152, 4.064,                 !- X,Y,Z Vertex 1 {m}
  4.00685, 8.7884, 4.064,                 !- X,Y,Z Vertex 2 {m}
  7.30885, 8.7884, 4.064,                 !- X,Y,Z Vertex 3 {m}
  7.30885, 12.8016, 4.064,                !- X,Y,Z Vertex 4 {m}
  -0.00635, 12.8016, 4.064,               !- X,Y,Z Vertex 5 {m}
  -0.00635, 7.3152, 4.064;                !- X,Y,Z Vertex 6 {m}

BuildingSurface:Detailed,
  Surface 112,                            !- Name
  Floor,                                  !- Surface Type
  Drop_Ceiling,                           !- Construction Name
  1F Plenum,                              !- Zone Name
  Surface,                                !- Outside Boundary Condition
  Surface 112 Reversed,                   !- Outside Boundary Condition Object
  NoSun,                                  !- Sun Exposure
  NoWind,                                 !- Wind Exposure
  0,                                      !- View Factor to Ground
  ,                                       !- Number of Vertices
  7.30885, 12.8016, 2.7432,               !- X,Y,Z Vertex 1 {m}
  7.30885, 8.7884, 2.7432,                !- X,Y,Z Vertex 2 {m}
  4.00685, 8.7884, 2.7432,                !- X,Y,Z Vertex 3 {m}
  4.00685, 7.3152, 2.7432,                !- X,Y,Z Vertex 4 {m}
  -0.00635, 7.3152, 2.7432,               !- X,Y,Z Vertex 5 {m}
  -0.00635, 12.8016, 2.7432;              !- X,Y,Z Vertex 6 {m}

BuildingSurface:Detailed,
  Surface 113,                            !- Name
  Floor,                                  !- Surface Type
  Drop_Ceiling,                           !- Construction Name
  1F Plenum,                              !- Zone Name
  Surface,                                !- Outside Boundary Condition
  Surface 113 Reversed,                   !- Outside Boundary Condition Object
  NoSun,                                  !- Sun Exposure
  NoWind,                                 !- Wind Exposure
  0,                                      !- View Factor to Ground
  ,                                       !- Number of Vertices
  12.79525, 5.4864, 2.7432,               !- X,Y,Z Vertex 1 {m}
  12.79525, 0, 2.7432,                    !- X,Y,Z Vertex 2 {m}
  5.48005, 0, 2.7432,                     !- X,Y,Z Vertex 3 {m}
  5.48005, 4.0132, 2.7432,                !- X,Y,Z Vertex 4 {m}
  8.78205, 4.0132, 2.7432,                !- X,Y,Z Vertex 5 {m}
  8.78205, 5.4864, 2.7432;                !- X,Y,Z Vertex 6 {m}

BuildingSurface:Detailed,
  Surface 116,                            !- Name
  Ceiling,                                !- Surface Type
  2F_Floor,                               !- Construction Name
  1F Plenum,                              !- Zone Name
  Surface,                                !- Outside Boundary Condition
  Surface 116 Reversed,                   !- Outside Boundary Condition Object
  NoSun,                                  !- Sun Exposure
  NoWind,                                 !- Wind Exposure
  0,                                      !- View Factor to Ground
  ,                                       !- Number of Vertices
  8.78205, 4.0132, 4.064,                 !- X,Y,Z Vertex 1 {m}
  8.78205, 5.4864, 4.064,                 !- X,Y,Z Vertex 2 {m}
  10.15365, 5.4864, 4.064,                !- X,Y,Z Vertex 3 {m}
  10.15365, 8.7884, 4.064,                !- X,Y,Z Vertex 4 {m}
  4.00685, 8.7884, 4.064,                 !- X,Y,Z Vertex 5 {m}
  4.00685, 4.0132, 4.064;                 !- X,Y,Z Vertex 6 {m}

BuildingSurface:Detailed,
  Surface 127,                            !- Name
  Ceiling,                                !- Surface Type
  2F_Floor,                               !- Construction Name
  1F Plenum,                              !- Zone Name
  Surface,                                !- Outside Boundary Condition
  Surface 3,                              !- Outside Boundary Condition Object
  NoSun,                                  !- Sun Exposure
  NoWind,                                 !- Wind Exposure
  0,                                      !- View Factor to Ground
  ,                                       !- Number of Vertices
  10.15365, 8.7884, 4.064,                !- X,Y,Z Vertex 1 {m}
  10.15365, 12.8016, 4.064,               !- X,Y,Z Vertex 2 {m}
  7.30885, 12.8016, 4.064,                !- X,Y,Z Vertex 3 {m}
  7.30885, 8.7884, 4.064;                 !- X,Y,Z Vertex 4 {m}

BuildingSurface:Detailed,
  Surface 27 Reversed,                    !- Name
  Floor,                                  !- Surface Type
  Drop_Ceiling,                           !- Construction Name
  1F Plenum,                              !- Zone Name
  Surface,                                !- Outside Boundary Condition
  Surface 27,                             !- Outside Boundary Condition Object
  NoSun,                                  !- Sun Exposure
  NoWind,                                 !- Wind Exposure
  0,                                      !- View Factor to Ground
  ,                                       !- Number of Vertices
  8.78205, 8.7884, 2.7432,                !- X,Y,Z Vertex 1 {m}
  8.78205, 4.0132, 2.7432,                !- X,Y,Z Vertex 2 {m}
  4.00685, 4.0132, 2.7432,                !- X,Y,Z Vertex 3 {m}
  4.00685, 8.7884, 2.7432;                !- X,Y,Z Vertex 4 {m}

BuildingSurface:Detailed,
  Surface 35 Reversed,                    !- Name
  Floor,                                  !- Surface Type
  Drop_Ceiling,                           !- Construction Name
  1F Plenum,                              !- Zone Name
  Surface,                                !- Outside Boundary Condition
  Surface 35,                             !- Outside Boundary Condition Object
  NoSun,                                  !- Sun Exposure
  NoWind,                                 !- Wind Exposure
  0,                                      !- View Factor to Ground
  ,                                       !- Number of Vertices
  10.15365, 12.8016, 2.7432,              !- X,Y,Z Vertex 1 {m}
  10.15365, 5.4864, 2.7432,               !- X,Y,Z Vertex 2 {m}
  8.78205, 5.4864, 2.7432,                !- X,Y,Z Vertex 3 {m}
  8.78205, 8.7884, 2.7432,                !- X,Y,Z Vertex 4 {m}
  7.30885, 8.7884, 2.7432,                !- X,Y,Z Vertex 5 {m}
  7.30885, 12.8016, 2.7432;               !- X,Y,Z Vertex 6 {m}

BuildingSurface:Detailed,
  Surface 56 Reversed,                    !- Name
  Ceiling,                                !- Surface Type
  2F_Floor,                               !- Construction Name
  1F Plenum,                              !- Zone Name
  Surface,                                !- Outside Boundary Condition
  Surface 56,                             !- Outside Boundary Condition Object
  NoSun,                                  !- Sun Exposure
  NoWind,                                 !- Wind Exposure
  0,                                      !- View Factor to Ground
  ,                                       !- Number of Vertices
  5.48005, 0, 4.064,                      !- X,Y,Z Vertex 1 {m}
  5.48005, 4.0132, 4.064,                 !- X,Y,Z Vertex 2 {m}
  4.00685, 4.0132, 4.064,                 !- X,Y,Z Vertex 3 {m}
  4.00685, 7.3152, 4.064,                 !- X,Y,Z Vertex 4 {m}
  -0.00635, 7.3152, 4.064,                !- X,Y,Z Vertex 5 {m}
  -0.00635, 0, 4.064;                     !- X,Y,Z Vertex 6 {m}

BuildingSurface:Detailed,
  SW_1F_Plenum_Wall,                      !- Name
  Wall,                                   !- Surface Type
  2FRP_Ext_Wall,                          !- Construction Name
  1F Plenum,                              !- Zone Name
  Outdoors,                               !- Outside Boundary Condition
  ,                                       !- Outside Boundary Condition Object
  SunExposed,                             !- Sun Exposure
  WindExposed,                            !- Wind Exposure
  ,                                       !- View Factor to Ground
  ,                                       !- Number of Vertices
  -0.00635, 0, 4.064,                     !- X,Y,Z Vertex 1 {m}
  -0.00635, 0, 2.7432,                    !- X,Y,Z Vertex 2 {m}
  5.48005, 0, 2.7432,                     !- X,Y,Z Vertex 3 {m}
  5.48005, 0, 4.064;                      !- X,Y,Z Vertex 4 {m}

BuildingSurface:Detailed,
  WN_1F_Plenum_Wall,                      !- Name
  Wall,                                   !- Surface Type
  Hybrid Spray Foam In.,                  !- Construction Name