
OS:Version,
  {ca02c4e2-eb5e-4f9a-8f17-a93bfe764cd4}, !- Handle
  1.3.0;                                  !- Version Identifier

OS:Building,
  {c1172cf7-7164-434b-bccc-0ed6ef7c399a}, !- Handle
  Ref Bldg Large Hotel New2004_v1.3_5.0,  !- Name
  ,                                       !- Building Sector Type
  0,                                      !- North Axis {deg}
  ,                                       !- Nominal Floor to Floor Height {m}
  ,                                       !- Space Type Name
  ,                                       !- Default Construction Set Name
  ;                                       !- Default Schedule Set Name

OS:ShadingSurfaceGroup,
  {75a2bf25-03c5-4af1-baf8-3951a9c8fd77}, !- Handle
  {e6ac7b01-d7ee-4ef9-97a9-edd9fdec978b}, !- Name
  Building;                               !- Shading Surface Type

OS:ShadingSurface,
  {4657be81-1b23-474c-b3d4-ec41b85d3262}, !- Handle
  Canopy,                                 !- Name
  ,                                       !- Construction Name
  {75a2bf25-03c5-4af1-baf8-3951a9c8fd77}, !- Shading Surface Group Name
  ,                                       !- Transmittance Schedule Name
  ,                                       !- Number of Vertices
  37.338, -9.144, 3.9624,                 !- X,Y,Z Vertex 1 {m}
  37.338, 0, 3.9624,                      !- X,Y,Z Vertex 2 {m}
  28.194, 0, 3.9624,                      !- X,Y,Z Vertex 3 {m}
  28.194, -9.144, 3.9624;                 !- X,Y,Z Vertex 4 {m}

OS:ThermalZone,
  {62f19c09-209d-4924-917d-bbed7f8646c2}, !- Handle
  Room_2_Flr_3 Thermal Zone,              !- Name
  4,                                      !- Multiplier
  ,                                       !- Ceiling Height {m}
  ,                                       !- Volume {m3}
  ,                                       !- Floor Area {m2}
  ,                                       !- Zone Inside Convection Algorithm
  ,                                       !- Zone Outside Convection Algorithm
  ,                                       !- Zone Conditioning Equipment List Name
  {f5c8041e-6542-423e-8856-7954f597561c}, !- Zone Air Inlet Port List
  {7802a130-5b63-49a2-8097-19aebb371a0c}, !- Zone Air Exhaust Port List
  {9f4c621b-0843-45e5-bb15-277384fb9d0a}, !- Zone Air Node Name
  ,                                       !- Zone Return Air Node Name
  ,                                       !- Primary Daylighting Control Name
  ,                                       !- Fraction of Zone Controlled by Primary Daylighting Control
  ,                                       !- Secondary Daylighting Control Name
  ,                                       !- Fraction of Zone Controlled by Secondary Daylighting Control
  ,                                       !- Illuminance Map Name
  ,                                       !- Group Rendering Name
  {a05da1fa-1da8-498a-9d05-d7640ba865e0}, !- Thermostat Name
  No;                                     !- Use Ideal Air Loads

OS:Node,
  {d6f6136a-4832-4302-8899-4c8a8737e2b4}, !- Handle
  Node 1,                                 !- Name
  {9f4c621b-0843-45e5-bb15-277384fb9d0a}, !- Inlet Port
  ;                                       !- Outlet Port

OS:Connection,
  {9f4c621b-0843-45e5-bb15-277384fb9d0a}, !- Handle
  Connection 1,                           !- Name
  {62f19c09-209d-4924-917d-bbed7f8646c2}, !- Source Object
  11,                                     !- Outlet Port
  {d6f6136a-4832-4302-8899-4c8a8737e2b4}, !- Target Object
  2;                                      !- Inlet Port

OS:PortList,
  {f5c8041e-6542-423e-8856-7954f597561c}, !- Handle
  Port List 1,                            !- Name
  {62f19c09-209d-4924-917d-bbed7f8646c2}; !- HVAC Component

OS:PortList,
  {7802a130-5b63-49a2-8097-19aebb371a0c}, !- Handle
  Port List 2,                            !- Name
  {62f19c09-209d-4924-917d-bbed7f8646c2}; !- HVAC Component

OS:Sizing:Zone,
  {13c881fd-dded-40b1-be47-fa05cb5a01e0}, !- Handle
  {62f19c09-209d-4924-917d-bbed7f8646c2}, !- Zone or ZoneList Name
  14,                                     !- Zone Cooling Design Supply Air Temperature {C}
  40,                                     !- Zone Heating Design Supply Air Temperature {C}
  0.0085,                                 !- Zone Cooling Design Supply Air Humidity Ratio {kg-H2O/kg-air}
  0.008,                                  !- Zone Heating Design Supply Air Humidity Ratio {kg-H2O/kg-air}
  ,                                       !- Zone Heating Sizing Factor
  ,                                       !- Zone Cooling Sizing Factor
  DesignDay,                              !- Cooling Design Air Flow Method
  ,                                       !- Cooling Design Air Flow Rate {m3/s}
  ,                                       !- Cooling Minimum Air Flow per Zone Floor Area {m3/s-m2}
  ,                                       !- Cooling Minimum Air Flow {m3/s}
  ,                                       !- Cooling Minimum Air Flow Fraction
  DesignDay,                              !- Heating Design Air Flow Method
  ,                                       !- Heating Design Air Flow Rate {m3/s}
  ,                                       !- Heating Maximum Air Flow per Zone Floor Area {m3/s-m2}
  ,                                       !- Heating Maximum Air Flow {m3/s}
  ,                                       !- Heating Maximum Air Flow Fraction
  ,                                       !- Design Zone Air Distribution Effectiveness in Cooling Mode
  ;                                       !- Design Zone Air Distribution Effectiveness in Heating Mode

OS:ZoneHVAC:EquipmentList,
  {9af65b5d-0ad3-41af-b6fa-f4001b5f924f}, !- Handle
  Zone HVAC Equipment List 1,             !- Name
  {62f19c09-209d-4924-917d-bbed7f8646c2}; !- Thermal Zone

OS:ThermalZone,
  {6fc859e1-1a81-4415-8471-e4d40c238e22}, !- Handle
  Room_3_Mult9_Flr_6 Thermal Zone,        !- Name
  9,                                      !- Multiplier
  ,                                       !- Ceiling Height {m}
  ,                                       !- Volume {m3}
  ,                                       !- Floor Area {m2}
  ,                                       !- Zone Inside Convection Algorithm
  ,                                       !- Zone Outside Convection Algorithm
  ,                                       !- Zone Conditioning Equipment List Name
  {5004f991-ec8e-433f-af4f-9df1b4de9f7f}, !- Zone Air Inlet Port List
  {2b8aa2b9-ef2f-420e-8737-36af61cf1031}, !- Zone Air Exhaust Port List
  {bd8307ff-2b20-434e-8f07-2f8f19ccdfc0}, !- Zone Air Node Name
  ,                                       !- Zone Return Air Node Name
  ,                                       !- Primary Daylighting Control Name
  ,                                       !- Fraction of Zone Controlled by Primary Daylighting Control
  ,                                       !- Secondary Daylighting Control Name
  ,                                       !- Fraction of Zone Controlled by Secondary Daylighting Control
  ,                                       !- Illuminance Map Name
  ,                                       !- Group Rendering Name
  {626a4900-0459-463d-8c25-aaf04ede67b2}, !- Thermostat Name
  No;                                     !- Use Ideal Air Loads

OS:Node,
  {29efd0d5-172c-4005-804e-cce18d6b9fb6}, !- Handle
  Node 2,                                 !- Name
  {bd8307ff-2b20-434e-8f07-2f8f19ccdfc0}, !- Inlet Port
  ;                                       !- Outlet Port

OS:Connection,
  {bd8307ff-2b20-434e-8f07-2f8f19ccdfc0}, !- Handle
  Connection 2,                           !- Name
  {6fc859e1-1a81-4415-8471-e4d40c238e22}, !- Source Object
  11,                                     !- Outlet Port
  {29efd0d5-172c-4005-804e-cce18d6b9fb6}, !- Target Object
  2;                                      !- Inlet Port

OS:PortList,
  {5004f991-ec8e-433f-af4f-9df1b4de9f7f}, !- Handle
  Port List 3,                            !- Name
  {6fc859e1-1a81-4415-8471-e4d40c238e22}; !- HVAC Component

OS:PortList,
  {2b8aa2b9-ef2f-420e-8737-36af61cf1031}, !- Handle
  Port List 4,                            !- Name
  {6fc859e1-1a81-4415-8471-e4d40c238e22}; !- HVAC Component

OS:Sizing:Zone,
  {f7fedea1-4fc3-4e8a-9560-d638e4ab02bf}, !- Handle
  {6fc859e1-1a81-4415-8471-e4d40c238e22}, !- Zone or ZoneList Name
  14,                                     !- Zone Cooling Design Supply Air Temperature {C}
  40,                                     !- Zone Heating Design Supply Air Temperature {C}
  0.0085,                                 !- Zone Cooling Design Supply Air Humidity Ratio {kg-H2O/kg-air}
  0.008,                                  !- Zone Heating Design Supply Air Humidity Ratio {kg-H2O/kg-air}
  ,                                       !- Zone Heating Sizing Factor
  ,                                       !- Zone Cooling Sizing Factor
  DesignDay,                              !- Cooling Design Air Flow Method
  ,                                       !- Cooling Design Air Flow Rate {m3/s}
  ,                                       !- Cooling Minimum Air Flow per Zone Floor Area {m3/s-m2}
  ,                                       !- Cooling Minimum Air Flow {m3/s}
  ,                                       !- Cooling Minimum Air Flow Fraction
  DesignDay,                              !- Heating Design Air Flow Method
  ,                                       !- Heating Design Air Flow Rate {m3/s}
  ,                                       !- Heating Maximum Air Flow per Zone Floor Area {m3/s-m2}
  ,                                       !- Heating Maximum Air Flow {m3/s}
  ,                                       !- Heating Maximum Air Flow Fraction
  ,                                       !- Design Zone Air Distribution Effectiveness in Cooling Mode
  ;                                       !- Design Zone Air Distribution Effectiveness in Heating Mode

OS:ZoneHVAC:EquipmentList,
  {6ba3e95c-f61f-4c59-81c7-775247af4623}, !- Handle
  Zone HVAC Equipment List 2,             !- Name
  {6fc859e1-1a81-4415-8471-e4d40c238e22}; !- Thermal Zone

OS:ThermalZone,
  {01bf325c-9a6b-4268-bab2-3588f6a879ef}, !- Handle
  Room_1_Flr_3 Thermal Zone,              !- Name
  4,                                      !- Multiplier
  ,                                       !- Ceiling Height {m}
  ,                                       !- Volume {m3}
  ,                                       !- Floor Area {m2}
  ,                                       !- Zone Inside Convection Algorithm
  ,                                       !- Zone Outside Convection Algorithm
  ,                                       !- Zone Conditioning Equipment List Name
  {6b4e81dc-8ce0-4e18-8849-fa079b77d5ce}, !- Zone Air Inlet Port List
  {4feedd2c-2ede-47ca-ad2d-a3f0c20b5233}, !- Zone Air Exhaust Port List
  {acb90df9-0bc2-457e-b089-c1e6a5ade6a6}, !- Zone Air Node Name
  ,                                       !- Zone Return Air Node Name
  ,                                       !- Primary Daylighting Control Name
  ,                                       !- Fraction of Zone Controlled by Primary Daylighting Control
  ,                                       !- Secondary Daylighting Control Name
  ,                                       !- Fraction of Zone Controlled by Secondary Daylighting Control
  ,                                       !- Illuminance Map Name
  ,                                       !- Group Rendering Name
  {50872da5-d6ad-463d-9588-e472a221b03c}, !- Thermostat Name
  No;                                     !- Use Ideal Air Loads

OS:Node,
  {c6e2c4d5-c4ce-43b8-8cb9-85ea2b2e9729}, !- Handle
  Node 3,                                 !- Name
  {acb90df9-0bc2-457e-b089-c1e6a5ade6a6}, !- Inlet Port
  ;                                       !- Outlet Port

OS:Connection,
  {acb90df9-0bc2-457e-b089-c1e6a5ade6a6}, !- Handle
  Connection 3,                           !- Name
  {01bf325c-9a6b-4268-bab2-3588f6a879ef}, !- Source Object
  11,                                     !- Outlet Port
  {c6e2c4d5-c4ce-43b8-8cb9-85ea2b2e9729}, !- Target Object
  2;                                      !- Inlet Port

OS:PortList,
  {6b4e81dc-8ce0-4e18-8849-fa079b77d5ce}, !- Handle
  Port List 5,                            !- Name
  {01bf325c-9a6b-4268-bab2-3588f6a879ef}; !- HVAC Component

OS:PortList,
  {4feedd2c-2ede-47ca-ad2d-a3f0c20b5233}, !- Handle
  Port List 6,                            !- Name
  {01bf325c-9a6b-4268-bab2-3588f6a879ef}; !- HVAC Component

OS:Sizing:Zone,
  {68cc1467-644c-4e8c-998c-41fe65f598c4}, !- Handle
  {01bf325c-9a6b-4268-bab2-3588f6a879ef}, !- Zone or ZoneList Name
  14,                                     !- Zone Cooling Design Supply Air Temperature {C}
  40,                                     !- Zone Heating Design Supply Air Temperature {C}
  0.0085,                                 !- Zone Cooling Design Supply Air Humidity Ratio {kg-H2O/kg-air}
  0.008,                                  !- Zone Heating Design Supply Air Humidity Ratio {kg-H2O/kg-air}
  ,                                       !- Zone Heating Sizing Factor
  ,                                       !- Zone Cooling Sizing Factor
  DesignDay,                              !- Cooling Design Air Flow Method
  ,                                       !- Cooling Design Air Flow Rate {m3/s}
  ,                                       !- Cooling Minimum Air Flow per Zone Floor Area {m3/s-m2}
  ,                                       !- Cooling Minimum Air Flow {m3/s}
  ,                                       !- Cooling Minimum Air Flow Fraction
  DesignDay,                              !- Heating Design Air Flow Method
  ,                                       !- Heating Design Air Flow Rate {m3/s}
  ,                                       !- Heating Maximum Air Flow per Zone Floor Area {m3/s-m2}
  ,                                       !- Heating Maximum Air Flow {m3/s}
  ,                                       !- Heating Maximum Air Flow Fraction
  ,                                       !- Design Zone Air Distribution Effectiveness in Cooling Mode
  ;                                       !- Design Zone Air Distribution Effectiveness in Heating Mode

OS:ZoneHVAC:EquipmentList,
  {cc3fd65f-1e06-448b-961f-eedade028f46}, !- Handle
  Zone HVAC Equipment List 3,             !- Name
  {01bf325c-9a6b-4268-bab2-3588f6a879ef}; !- Thermal Zone

OS:ThermalZone,
  {2b3a9093-ad2b-4016-b044-437be8991e84}, !- Handle
  Lobby_Flr_1 Thermal Zone,               !- Name
  1,                                      !- Multiplier
  ,                                       !- Ceiling Height {m}
  ,                                       !- Volume {m3}
  ,                                       !- Floor Area {m2}
  ,                                       !- Zone Inside Convection Algorithm
  ,                                       !- Zone Outside Convection Algorithm
  ,                                       !- Zone Conditioning Equipment List Name
  {0e495013-d5a6-448d-8f8a-e915f151f45b}, !- Zone Air Inlet Port List
  {5e788c4d-07fe-4042-9b75-879204fecd70}, !- Zone Air Exhaust Port List
  {792ad69a-749f-4786-93aa-370e04c5f32d}, !- Zone Air Node Name
  ,                                       !- Zone Return Air Node Name
  ,                                       !- Primary Daylighting Control Name
  ,                                       !- Fraction of Zone Controlled by Primary Daylighting Control
  ,                                       !- Secondary Daylighting Control Name
  ,                                       !- Fraction of Zone Controlled by Secondary Daylighting Control
  ,                                       !- Illuminance Map Name
  ,                                       !- Group Rendering Name
  {8896b4ed-9b1a-41f6-915e-9d3316b3b1c4}, !- Thermostat Name
  No;                                     !- Use Ideal Air Loads

OS:Node,
  {919ed621-3333-4ca8-9164-99f0f6e996bf}, !- Handle
  Node 4,                                 !- Name
  {792ad69a-749f-4786-93aa-370e04c5f32d}, !- Inlet Port
  ;                                       !- Outlet Port

OS:Connection,
  {792ad69a-749f-4786-93aa-370e04c5f32d}, !- Handle
  Connection 4,                           !- Name
  {2b3a9093-ad2b-4016-b044-437be8991e84}, !- Source Object
  11,                                     !- Outlet Port
  {919ed621-3333-4ca8-9164-99f0f6e996bf}, !- Target Object
  2;                                      !- Inlet Port

OS:PortList,
  {0e495013-d5a6-448d-8f8a-e915f151f45b}, !- Handle
  Port List 7,                            !- Name
  {2b3a9093-ad2b-4016-b044-437be8991e84}; !- HVAC Component

OS:PortList,
  {5e788c4d-07fe-4042-9b75-879204fecd70}, !- Handle
  Port List 8,                            !- Name
  {2b3a9093-ad2b-4016-b044-437be8991e84}; !- HVAC Component

OS:Sizing:Zone,
  {fb5c68c4-f186-403c-832e-36576745dde4}, !- Handle
  {2b3a9093-ad2b-4016-b044-437be8991e84}, !- Zone or ZoneList Name
  14,                                     !- Zone Cooling Design Supply Air Temperature {C}
  40,                                     !- Zone Heating Design Supply Air Temperature {C}
  0.0085,                                 !- Zone Cooling Design Supply Air Humidity Ratio {kg-H2O/kg-air}
  0.008,                                  !- Zone Heating Design Supply Air Humidity Ratio {kg-H2O/kg-air}
  ,                                       !- Zone Heating Sizing Factor
  ,                                       !- Zone Cooling Sizing Factor
  DesignDay,                              !- Cooling Design Air Flow Method
  ,                                       !- Cooling Design Air Flow Rate {m3/s}
  ,                                       !- Cooling Minimum Air Flow per Zone Floor Area {m3/s-m2}
  ,                                       !- Cooling Minimum Air Flow {m3/s}
  ,                                       !- Cooling Minimum Air Flow Fraction
  DesignDay,                              !- Heating Design Air Flow Method
  ,                                       !- Heating Design Air Flow Rate {m3/s}
  ,                                       !- Heating Maximum Air Flow per Zone Floor Area {m3/s-m2}
  ,                                       !- Heating Maximum Air Flow {m3/s}
  ,                                       !- Heating Maximum Air Flow Fraction
  ,                                       !- Design Zone Air Distribution Effectiveness in Cooling Mode
  ;                                       !- Design Zone Air Distribution Effectiveness in Heating Mode

OS:ZoneHVAC:EquipmentList,
  {25b090e1-8892-4fff-adf7-f1460f2692b5}, !- Handle
  Zone HVAC Equipment List 4,             !- Name
  {2b3a9093-ad2b-4016-b044-437be8991e84}; !- Thermal Zone

OS:ThermalZone,
  {1576b4a4-cc80-4a36-969c-dcbef94bde5e}, !- Handle
  Room_2_Flr_6 Thermal Zone,              !- Name
  1,                                      !- Multiplier
  ,                                       !- Ceiling Height {m}
  ,                                       !- Volume {m3}
  ,                                       !- Floor Area {m2}
  ,                                       !- Zone Inside Convection Algorithm
  ,                                       !- Zone Outside Convection Algorithm
  ,                                       !- Zone Conditioning Equipment List Name
  {ed595903-45c6-4295-bf41-1cd80b297c08}, !- Zone Air Inlet Port List
  {cf099e0e-b5b1-4d3a-8a79-06da866a94a4}, !- Zone Air Exhaust Port List
  {6070e27e-158e-451b-aa12-994886c80cba}, !- Zone Air Node Name
  ,                                       !- Zone Return Air Node Name
  ,                                       !- Primary Daylighting Control Name
  ,                                       !- Fraction of Zone Controlled by Primary Daylighting Control
  ,                                       !- Secondary Daylighting Control Name
  ,                                       !- Fraction of Zone Controlled by Secondary Daylighting Control
  ,                                       !- Illuminance Map Name
  ,                                       !- Group Rendering Name
  {070a35b8-e608-41a4-93c0-acfd7315e3c7}, !- Thermostat Name
  No;                                     !- Use Ideal Air Loads

OS:Node,
  {43be23e8-8ce9-44d3-bff9-6ecc68142eca}, !- Handle
  Node 5,                                 !- Name
  {6070e27e-158e-451b-aa12-994886c80cba}, !- Inlet Port
  ;                                       !- Outlet Port

OS:Connection,
  {6070e27e-158e-451b-aa12-994886c80cba}, !- Handle
  Connection 5,                           !- Name
  {1576b4a4-cc80-4a36-969c-dcbef94bde5e}, !- Source Object
  11,                                     !- Outlet Port
  {43be23e8-8ce9-44d3-bff9-6ecc68142eca}, !- Target Object
  2;                                      !- Inlet Port

OS:PortList,
  {ed595903-45c6-4295-bf41-1cd80b297c08}, !- Handle
  Port List 9,                            !- Name
  {1576b4a4-cc80-4a36-969c-dcbef94bde5e}; !- HVAC Component

OS:PortList,
  {cf099e0e-b5b1-4d3a-8a79-06da866a94a4}, !- Handle
  Port List 10,                           !- Name
  {1576b4a4-cc80-4a36-969c-dcbef94bde5e}; !- HVAC Component

OS:Sizing:Zone,
  {3ef6f9fd-7fb2-46f3-a8db-7be3edaf6f32}, !- Handle
  {1576b4a4-cc80-4a36-969c-dcbef94bde5e}, !- Zone or ZoneList Name
  14,                                     !- Zone Cooling Design Supply Air Temperature {C}
  40,                                     !- Zone Heating Design Supply Air Temperature {C}
  0.0085,                                 !- Zone Cooling Design Supply Air Humidity Ratio {kg-H2O/kg-air}
  0.008,                                  !- Zone Heating Design Supply Air Humidity Ratio {kg-H2O/kg-air}
  ,                                       !- Zone Heating Sizing Factor
  ,                                       !- Zone Cooling Sizing Factor
  DesignDay,                              !- Cooling Design Air Flow Method
  ,                                       !- Cooling Design Air Flow Rate {m3/s}
  ,                                       !- Cooling Minimum Air Flow per Zone Floor Area {m3/s-m2}
  ,                                       !- Cooling Minimum Air Flow {m3/s}
  ,                                       !- Cooling Minimum Air Flow Fraction
  DesignDay,                              !- Heating Design Air Flow Method
  ,                                       !- Heating Design Air Flow Rate {m3/s}
  ,                                       !- Heating Maximum Air Flow per Zone Floor Area {m3/s-m2}
  ,                                       !- Heating Maximum Air Flow {m3/s}
  ,                                       !- Heating Maximum Air Flow Fraction
  ,                                       !- Design Zone Air Distribution Effectiveness in Cooling Mode
  ;                                       !- Design Zone Air Distribution Effectiveness in Heating Mode

OS:ZoneHVAC:EquipmentList,
  {04901724-62c5-4402-a607-f32ccd0b626d}, !- Handle
  Zone HVAC Equipment List 5,             !- Name
  {1576b4a4-cc80-4a36-969c-dcbef94bde5e}; !- Thermal Zone

OS:ThermalZone,
  {5dc88045-48fa-4adf-a5a8-1d12bd64a25b}, !- Handle
  Storage_Flr_1 Thermal Zone,             !- Name
  1,                                      !- Multiplier
  ,                                       !- Ceiling Height {m}
  ,                                       !- Volume {m3}
  ,                                       !- Floor Area {m2}
  ,                                       !- Zone Inside Convection Algorithm
  ,                                       !- Zone Outside Convection Algorithm
  ,                                       !- Zone Conditioning Equipment List Name
  {273bdba6-b617-42a7-8470-e5bafe5e38d9}, !- Zone Air Inlet Port List
  {66e424d0-700c-4f2b-bb38-9d2c00610f70}, !- Zone Air Exhaust Port List
  {5a863fac-f517-4d8a-a0e3-04231f556f6b}, !- Zone Air Node Name
  ,                                       !- Zone Return Air Node Name
  ,                                       !- Primary Daylighting Control Name
  ,                                       !- Fraction of Zone Controlled by Primary Daylighting Control
  ,                                       !- Secondary Daylighting Control Name
  ,                                       !- Fraction of Zone Controlled by Secondary Daylighting Control
  ,                                       !- Illuminance Map Name
  ,                                       !- Group Rendering Name
  {a5ab893b-b446-4ec4-baff-396a069440bc}, !- Thermostat Name
  No;                                     !- Use Ideal Air Loads

OS:Node,
  {7481bb92-5b11-4962-a006-eed937b0ebc4}, !- Handle
  Node 6,                                 !- Name
  {5a863fac-f517-4d8a-a0e3-04231f556f6b}, !- Inlet Port
  ;                                       !- Outlet Port

OS:Connection,
  {5a863fac-f517-4d8a-a0e3-04231f556f6b}, !- Handle
  Connection 6,                           !- Name
  {5dc88045-48fa-4adf-a5a8-1d12bd64a25b}, !- Source Object
  11,                                     !- Outlet Port
  {7481bb92-5b11-4962-a006-eed937b0ebc4}, !- Target Object
  2;                                      !- Inlet Port

OS:PortList,
  {273bdba6-b617-42a7-8470-e5bafe5e38d9}, !- Handle
  Port List 11,                           !- Name
  {5dc88045-48fa-4adf-a5a8-1d12bd64a25b}; !- HVAC Component

OS:PortList,
  {66e424d0-700c-4f2b-bb38-9d2c00610f70}, !- Handle
  Port List 12,                           !- Name
  {5dc88045-48fa-4adf-a5a8-1d12bd64a25b}; !- HVAC Component

OS:Sizing:Zone,
  {ea310187-8ba3-4cdf-83d2-fcb909668690}, !- Handle
  {5dc88045-48fa-4adf-a5a8-1d12bd64a25b}, !- Zone or ZoneList Name
  14,                                     !- Zone Cooling Design Supply Air Temperature {C}
  40,                                     !- Zone Heating Design Supply Air Temperature {C}
  0.0085,                                 !- Zone Cooling Design Supply Air Humidity Ratio {kg-H2O/kg-air}
  0.008,                                  !- Zone Heating Design Supply Air Humidity Ratio {kg-H2O/kg-air}
  ,                                       !- Zone Heating Sizing Factor
  ,                                       !- Zone Cooling Sizing Factor
  DesignDay,                              !- Cooling Design Air Flow Method
  ,                                       !- Cooling Design Air Flow Rate {m3/s}
  ,                                       !- Cooling Minimum Air Flow per Zone Floor Area {m3/s-m2}
  ,                                       !- Cooling Minimum Air Flow {m3/s}
  ,                                       !- Cooling Minimum Air Flow Fraction
  DesignDay,                              !- Heating Design Air Flow Method
  ,                                       !- Heating Design Air Flow Rate {m3/s}
  ,                                       !- Heating Maximum Air Flow per Zone Floor Area {m3/s-m2}
  ,                                       !- Heating Maximum Air Flow {m3/s}
  ,                                       !- Heating Maximum Air Flow Fraction
  ,                                       !- Design Zone Air Distribution Effectiveness in Cooling Mode
  ;                                       !- Design Zone Air Distribution Effectiveness in Heating Mode

OS:ZoneHVAC:EquipmentList,
  {f5253815-fdbf-419e-9cd7-86cffb7c69b6}, !- Handle
  Zone HVAC Equipment List 6,             !- Name
  {5dc88045-48fa-4adf-a5a8-1d12bd64a25b}; !- Thermal Zone

OS:ThermalZone,
  {4b33696e-e4dd-43f4-a9d6-9473e0776be3}, !- Handle
  Banquet_Flr_6 Thermal Zone,             !- Name
  1,                                      !- Multiplier
  ,                                       !- Ceiling Height {m}
  ,                                       !- Volume {m3}
  ,                                       !- Floor Area {m2}
  ,                                       !- Zone Inside Convection Algorithm
  ,                                       !- Zone Outside Convection Algorithm
  ,                                       !- Zone Conditioning Equipment List Name
  {55f1bbe2-4e9a-4c1c-a74e-64ba999b3ba4}, !- Zone Air Inlet Port List
  {3c7e0637-d5f9-4fdf-a61c-559f4e149282}, !- Zone Air Exhaust Port List
  {3010cc1b-c551-48ae-82e4-5f3734d5772a}, !- Zone Air Node Name
  ,                                       !- Zone Return Air Node Name
  ,                                       !- Primary Daylighting Control Name
  ,                                       !- Fraction of Zone Controlled by Primary Daylighting Control
  ,                                       !- Secondary Daylighting Control Name
  ,                                       !- Fraction of Zone Controlled by Secondary Daylighting Control
  ,                                       !- Illuminance Map Name
  ,                                       !- Group Rendering Name
  {ae8c8cb9-cfeb-446f-afa8-c292752bddf3}, !- Thermostat Name
  No;                                     !- Use Ideal Air Loads

OS:Node,
  {1f5c1769-0d20-47f3-8d92-4cf238738a85}, !- Handle
  Node 7,                                 !- Name
  {3010cc1b-c551-48ae-82e4-5f3734d5772a}, !- Inlet Port
  ;                                       !- Outlet Port

OS:Connection,
  {3010cc1b-c551-48ae-82e4-5f3734d5772a}, !- Handle
  Connection 7,                           !- Name
  {4b33696e-e4dd-43f4-a9d6-9473e0776be3}, !- Source Object
  11,                                     !- Outlet Port
  {1f5c1769-0d20-47f3-8d92-4cf238738a85}, !- Target Object
  2;                                      !- Inlet Port

OS:PortList,
  {55f1bbe2-4e9a-4c1c-a74e-64ba999b3ba4}, !- Handle
  Port List 13,                           !- Name
  {4b33696e-e4dd-43f4-a9d6-9473e0776be3}; !- HVAC Component

OS:PortList,
  {3c7e0637-d5f9-4fdf-a61c-559f4e149282}, !- Handle
  Port List 14,                           !- Name
  {4b33696e-e4dd-43f4-a9d6-9473e0776be3}; !- HVAC Component

OS:Sizing:Zone,
  {270fbf22-e480-4a96-8a21-84e240c77220}, !- Handle